14
butane_opt
C  -3.942998   0.276998  -0.008152
C  -2.685067  -0.632436   0.090430
H  -4.822517  -0.321150  -0.146903
H  -3.854602   0.861729  -0.896509
H  -4.092927   1.003217   0.872104
C  -1.407352   0.165844   0.036357
H  -2.679489  -1.295481  -0.758571
H  -2.735439  -1.278303   0.996210
C  -0.171280  -0.675129  -0.003023
H  -1.344835   0.860184   0.887165
H  -1.399296   0.802297  -0.871733
H  -0.138996  -1.274323   0.862118
H   0.710915  -0.109243   0.000746
H  -0.187844  -1.345465  -0.883870
