butane_opt
 OpenBabel08242015403D

 14 13  0  0  0  0  0  0  0  0999 V2000
   -3.9425    0.2532   -0.0056 C   0  0  0  0  0  0  0  0  0  0  0  0
   -2.7083   -0.6041    0.0647 C   0  0  0  0  0  0  0  0  0  0  0  0
   -4.8588   -0.3373    0.0837 H   0  0  0  0  0  0  0  0  0  0  0  0
   -3.9694    0.9898   -0.9853 H   0  0  0  0  0  0  0  0  0  0  0  0
   -3.9064    0.8580    0.7778 H   0  0  0  0  0  0  0  0  0  0  0  0
   -1.4023    0.1947    0.0376 C   0  0  0  0  0  0  0  0  0  0  0  0
   -2.7393   -1.2662   -0.7546 H   0  0  0  0  0  0  0  0  0  0  0  0
   -2.7007   -1.2577    0.9755 H   0  0  0  0  0  0  0  0  0  0  0  0
   -0.1563   -0.7074    0.0136 C   0  0  0  0  0  0  0  0  0  0  0  0
   -1.4031    0.8648    0.8847 H   0  0  0  0  0  0  0  0  0  0  0  0
   -1.4151    0.8139   -0.8501 H   0  0  0  0  0  0  0  0  0  0  0  0
   -0.1279   -1.1881    0.8081 H   0  0  0  0  0  0  0  0  0  0  0  0
    0.7828   -0.0915    0.0839 H   0  0  0  0  0  0  0  0  0  0  0  0
   -0.1699   -1.4930   -0.9348 H   0  0  0  0  0  0  0  0  0  0  0  0
  1  2  1  0  0  0  0
  1  3  1  0  0  0  0
  1  5  1  0  0  0  0
  2  8  1  0  0  0  0
  4  1  1  0  0  0  0
  6  2  1  0  0  0  0
  6 10  1  0  0  0  0
  7  2  1  0  0  0  0
  9  6  1  0  0  0  0
  9 13  1  0  0  0  0
  9 12  1  0  0  0  0
 11  6  1  0  0  0  0
 14  9  1  0  0  0  0
M  END
$$$$
