butane_opt
 OpenBabel08242015403D

 14 13  0  0  0  0  0  0  0  0999 V2000
   -3.9371    0.2780   -0.0073 C   0  0  0  0  0  0  0  0  0  0  0  0
   -2.7012   -0.6237    0.0836 C   0  0  0  0  0  0  0  0  0  0  0  0
   -4.8471   -0.3412   -0.0567 H   0  0  0  0  0  0  0  0  0  0  0  0
   -3.9223    0.9261   -0.9379 H   0  0  0  0  0  0  0  0  0  0  0  0
   -4.0267    0.9136    0.8209 H   0  0  0  0  0  0  0  0  0  0  0  0
   -1.4003    0.1696    0.0324 C   0  0  0  0  0  0  0  0  0  0  0  0
   -2.6505   -1.2993   -0.7738 H   0  0  0  0  0  0  0  0  0  0  0  0
   -2.7134   -1.2527    0.9903 H   0  0  0  0  0  0  0  0  0  0  0  0
   -0.1696   -0.6883    0.0031 C   0  0  0  0  0  0  0  0  0  0  0  0
   -1.3642    0.8825    0.9039 H   0  0  0  0  0  0  0  0  0  0  0  0
   -1.4093    0.7580   -0.8408 H   0  0  0  0  0  0  0  0  0  0  0  0
   -0.1404   -1.2243    0.8680 H   0  0  0  0  0  0  0  0  0  0  0  0
    0.7766   -0.0650    0.0006 H   0  0  0  0  0  0  0  0  0  0  0  0
   -0.2258   -1.3944   -0.8846 H   0  0  0  0  0  0  0  0  0  0  0  0
  1  2  1  0  0  0  0
  1  5  1  0  0  0  0
  2  8  1  0  0  0  0
  3  1  1  0  0  0  0
  4  1  1  0  0  0  0
  6  2  1  0  0  0  0
  6 10  1  0  0  0  0
  7  2  1  0  0  0  0
  9  6  1  0  0  0  0
  9 12  1  0  0  0  0
 11  6  1  0  0  0  0
 13  9  1  0  0  0  0
 14  9  1  0  0  0  0
M  END
$$$$
