14
butane_opt
C  -3.945122   0.259729  -0.005162
C  -2.702091  -0.614214   0.057415
H  -4.820037  -0.318849  -0.026064
H  -3.931253   0.850768  -0.902703
H  -4.033783   0.917946   0.844051
C  -1.401905   0.191779   0.045441
H  -2.741736  -1.254976  -0.757290
H  -2.764649  -1.213543   0.957567
C  -0.151707  -0.700932   0.009784
H  -1.357977   0.867658   0.898278
H  -1.414808   0.844580  -0.847701
H  -0.042573  -1.330226   0.906727
H   0.730479  -0.123605  -0.081394
H  -0.232565  -1.352093  -0.835629
