butane_opt
 OpenBabel08242015403D

 14 13  0  0  0  0  0  0  0  0999 V2000
   -3.9322    0.2537    0.0542 C   0  0  0  0  0  0  0  0  0  0  0  0
   -2.6910   -0.6072    0.0081 C   0  0  0  0  0  0  0  0  0  0  0  0
   -4.8782   -0.3853    0.0882 H   0  0  0  0  0  0  0  0  0  0  0  0
   -3.9810    0.8278   -0.8179 H   0  0  0  0  0  0  0  0  0  0  0  0
   -3.8757    0.9669    0.9409 H   0  0  0  0  0  0  0  0  0  0  0  0
   -1.4091    0.2046   -0.0363 C   0  0  0  0  0  0  0  0  0  0  0  0
   -2.7256   -1.3061   -0.8670 H   0  0  0  0  0  0  0  0  0  0  0  0
   -2.7135   -1.2157    0.8872 H   0  0  0  0  0  0  0  0  0  0  0  0
   -0.1799   -0.7060    0.0650 C   0  0  0  0  0  0  0  0  0  0  0  0
   -1.4452    0.8222    0.7949 H   0  0  0  0  0  0  0  0  0  0  0  0
   -1.3841    0.9287   -1.0009 H   0  0  0  0  0  0  0  0  0  0  0  0
   -0.1750   -1.2993    0.9481 H   0  0  0  0  0  0  0  0  0  0  0  0
    0.7438   -0.1347    0.2021 H   0  0  0  0  0  0  0  0  0  0  0  0
   -0.0412   -1.4237   -0.8215 H   0  0  0  0  0  0  0  0  0  0  0  0
  1  3  1  0  0  0  0
  1  5  1  0  0  0  0
  2  1  1  0  0  0  0
  2  8  1  0  0  0  0
  4  1  1  0  0  0  0
  6  2  1  0  0  0  0
  6  9  1  0  0  0  0
  6 10  1  0  0  0  0
  7  2  1  0  0  0  0
  9 13  1  0  0  0  0
  9 12  1  0  0  0  0
 11  6  1  0  0  0  0
 14  9  1  0  0  0  0
M  END
$$$$
