butane_opt
 OpenBabel08242015403D

 14 13  0  0  0  0  0  0  0  0999 V2000
   -3.9381    0.2636   -0.0076 C   0  0  0  0  0  0  0  0  0  0  0  0
   -2.6972   -0.6226    0.0838 C   0  0  0  0  0  0  0  0  0  0  0  0
   -4.8701   -0.3264   -0.0945 H   0  0  0  0  0  0  0  0  0  0  0  0
   -3.8342    0.8401   -0.8878 H   0  0  0  0  0  0  0  0  0  0  0  0
   -4.0052    0.9588    0.8707 H   0  0  0  0  0  0  0  0  0  0  0  0
   -1.4068    0.1953    0.0266 C   0  0  0  0  0  0  0  0  0  0  0  0
   -2.6806   -1.2698   -0.7319 H   0  0  0  0  0  0  0  0  0  0  0  0
   -2.7633   -1.2189    0.9737 H   0  0  0  0  0  0  0  0  0  0  0  0
   -0.1700   -0.6977    0.0039 C   0  0  0  0  0  0  0  0  0  0  0  0
   -1.3444    0.8778    0.8957 H   0  0  0  0  0  0  0  0  0  0  0  0
   -1.4376    0.8186   -0.8796 H   0  0  0  0  0  0  0  0  0  0  0  0
   -0.1035   -1.2970    0.8765 H   0  0  0  0  0  0  0  0  0  0  0  0
    0.7237   -0.1224    0.0327 H   0  0  0  0  0  0  0  0  0  0  0  0
   -0.1675   -1.4030   -0.8877 H   0  0  0  0  0  0  0  0  0  0  0  0
  1  2  1  0  0  0  0
  1  5  1  0  0  0  0
  2  8  1  0  0  0  0
  3  1  1  0  0  0  0
  4  1  1  0  0  0  0
  6  2  1  0  0  0  0
  6 10  1  0  0  0  0
  7  2  1  0  0  0  0
  9  6  1  0  0  0  0
  9 13  1  0  0  0  0
  9 12  1  0  0  0  0
 11  6  1  0  0  0  0
 14  9  1  0  0  0  0
M  END
$$$$
