butane_opt
 OpenBabel08242015403D

 14 13  0  0  0  0  0  0  0  0999 V2000
   -3.9639    0.2701   -0.0041 C   0  0  0  0  0  0  0  0  0  0  0  0
   -2.6884   -0.6361    0.0690 C   0  0  0  0  0  0  0  0  0  0  0  0
   -4.8454   -0.2799    0.0603 H   0  0  0  0  0  0  0  0  0  0  0  0
   -4.0435    0.9520   -0.9544 H   0  0  0  0  0  0  0  0  0  0  0  0
   -3.9633    0.9094    0.8506 H   0  0  0  0  0  0  0  0  0  0  0  0
   -1.3900    0.1795    0.0271 C   0  0  0  0  0  0  0  0  0  0  0  0
   -2.6813   -1.2838   -0.7595 H   0  0  0  0  0  0  0  0  0  0  0  0
   -2.7377   -1.2628    0.9465 H   0  0  0  0  0  0  0  0  0  0  0  0
   -0.1649   -0.6811    0.0109 C   0  0  0  0  0  0  0  0  0  0  0  0
   -1.3813    0.8310    0.8578 H   0  0  0  0  0  0  0  0  0  0  0  0
   -1.3801    0.8230   -0.8649 H   0  0  0  0  0  0  0  0  0  0  0  0
   -0.1468   -1.1864    0.8540 H   0  0  0  0  0  0  0  0  0  0  0  0
    0.7286   -0.0907    0.1167 H   0  0  0  0  0  0  0  0  0  0  0  0
   -0.0916   -1.4705   -0.9220 H   0  0  0  0  0  0  0  0  0  0  0  0
  1  3  1  0  0  0  0
  1  2  1  0  0  0  0
  1  5  1  0  0  0  0
  2  8  1  0  0  0  0
  4  1  1  0  0  0  0
  6  2  1  0  0  0  0
  6 10  1  0  0  0  0
  7  2  1  0  0  0  0
  9  6  1  0  0  0  0
  9 13  1  0  0  0  0
  9 12  1  0  0  0  0
 11  6  1  0  0  0  0
 14  9  1  0  0  0  0
M  END
$$$$
