14
butane_opt
C  -3.937851   0.271625  -0.012180
C  -2.690330  -0.621118   0.067733
H  -4.844615  -0.298059   0.023413
H  -3.956399   0.942240  -0.973750
H  -4.002558   0.904007   0.814498
C  -1.397650   0.173620   0.057239
H  -2.659646  -1.315748  -0.770077
H  -2.700245  -1.289873   0.979868
C  -0.186744  -0.686106  -0.003675
H  -1.364186   0.857649   0.907490
H  -1.362810   0.790220  -0.825184
H  -0.088776  -1.294167   0.881152
H   0.729615  -0.061371  -0.022493
H  -0.224363  -1.356419  -0.888822
