butane_opt
 OpenBabel08242015403D

 14 13  0  0  0  0  0  0  0  0999 V2000
   -3.9529    0.2730   -0.0108 C   0  0  0  0  0  0  0  0  0  0  0  0
   -2.6825   -0.6240    0.0484 C   0  0  0  0  0  0  0  0  0  0  0  0
   -4.8643   -0.3469    0.1536 H   0  0  0  0  0  0  0  0  0  0  0  0
   -4.0180    0.9737   -0.9693 H   0  0  0  0  0  0  0  0  0  0  0  0
   -3.9213    0.8916    0.7980 H   0  0  0  0  0  0  0  0  0  0  0  0
   -1.4035    0.1716    0.0462 C   0  0  0  0  0  0  0  0  0  0  0  0
   -2.6782   -1.2672   -0.7682 H   0  0  0  0  0  0  0  0  0  0  0  0
   -2.7083   -1.2743    0.9779 H   0  0  0  0  0  0  0  0  0  0  0  0
   -0.1675   -0.6818    0.0069 C   0  0  0  0  0  0  0  0  0  0  0  0
   -1.3574    0.8829    0.9350 H   0  0  0  0  0  0  0  0  0  0  0  0
   -1.3988    0.7392   -0.8158 H   0  0  0  0  0  0  0  0  0  0  0  0
   -0.1384   -1.2847    0.8913 H   0  0  0  0  0  0  0  0  0  0  0  0
    0.7528   -0.0788    0.0085 H   0  0  0  0  0  0  0  0  0  0  0  0
   -0.2143   -1.3668   -0.8649 H   0  0  0  0  0  0  0  0  0  0  0  0
  1  2  1  0  0  0  0
  1  3  1  0  0  0  0
  1  5  1  0  0  0  0
  2  8  1  0  0  0  0
  4  1  1  0  0  0  0
  6  2  1  0  0  0  0
  6 10  1  0  0  0  0
  7  2  1  0  0  0  0
  9 13  1  0  0  0  0
  9  6  1  0  0  0  0
  9 12  1  0  0  0  0
 11  6  1  0  0  0  0
 14  9  1  0  0  0  0
M  END
$$$$
