14
butane_opt
C  -3.935238   0.259282  -0.013287
C  -2.695320  -0.611635   0.094512
H  -4.871130  -0.331880  -0.142346
H  -3.810520   0.837812  -0.912704
H  -4.025646   0.975523   0.870024
C  -1.404554   0.192667   0.041477
H  -2.680322  -1.306065  -0.749424
H  -2.756290  -1.273738   0.990609
C  -0.172120  -0.700497  -0.005373
H  -1.364343   0.876480   0.907128
H  -1.452757   0.856340  -0.863302
H  -0.142965  -1.273456   0.855830
H   0.705235  -0.135673  -0.041631
H  -0.136780  -1.380017  -0.881236
