14
butane_opt
C  -3.955132   0.282901   0.055150
C  -2.695989  -0.636087   0.003082
H  -4.829631  -0.299241   0.078702
H  -4.041452   0.850320  -0.815310
H  -3.961767   0.944207   0.907984
C  -1.392002   0.175629  -0.027104
H  -2.785244  -1.322135  -0.888234
H  -2.669368  -1.252124   0.894504
C  -0.168615  -0.681683   0.072725
H  -1.396599   0.804579   0.766613
H  -1.317589   0.870498  -0.988928
H  -0.169574  -1.253165   0.952325
H   0.748509  -0.090247   0.107227
H  -0.069839  -1.411735  -0.828158
