14
butane_opt
C  -3.933920   0.256402   0.039289
C  -2.705836  -0.608131   0.007013
H  -4.830902  -0.352897   0.126876
H  -4.022739   0.850262  -0.823463
H  -3.853971   0.930473   0.930009
C  -1.412809   0.205215  -0.025783
H  -2.784999  -1.282679  -0.821622
H  -2.730936  -1.252087   0.918105
C  -0.159684  -0.708416   0.056154
H  -1.416554   0.869127   0.815287
H  -1.387838   0.870060  -0.939476
H  -0.173171  -1.311785   0.951650
H   0.761775  -0.107642   0.183630
H  -0.042554  -1.424018  -0.823029
