butane_opt
 OpenBabel08242015403D

 14 13  0  0  0  0  0  0  0  0999 V2000
   -3.9385    0.2497   -0.0031 C   0  0  0  0  0  0  0  0  0  0  0  0
   -2.7014   -0.6029    0.0426 C   0  0  0  0  0  0  0  0  0  0  0  0
   -4.8578   -0.3669    0.1048 H   0  0  0  0  0  0  0  0  0  0  0  0
   -3.9613    0.9685   -0.9420 H   0  0  0  0  0  0  0  0  0  0  0  0
   -3.9280    0.8402    0.8146 H   0  0  0  0  0  0  0  0  0  0  0  0
   -1.4131    0.2026    0.0422 C   0  0  0  0  0  0  0  0  0  0  0  0
   -2.6818   -1.2338   -0.7669 H   0  0  0  0  0  0  0  0  0  0  0  0
   -2.7515   -1.2914    0.9894 H   0  0  0  0  0  0  0  0  0  0  0  0
   -0.1571   -0.7064    0.0106 C   0  0  0  0  0  0  0  0  0  0  0  0
   -1.3574    0.9477    0.9160 H   0  0  0  0  0  0  0  0  0  0  0  0
   -1.3773    0.7893   -0.8146 H   0  0  0  0  0  0  0  0  0  0  0  0
   -0.0751   -1.2866    0.8732 H   0  0  0  0  0  0  0  0  0  0  0  0
    0.6972   -0.1826    0.0065 H   0  0  0  0  0  0  0  0  0  0  0  0
   -0.1915   -1.3826   -0.8548 H   0  0  0  0  0  0  0  0  0  0  0  0
  1  2  1  0  0  0  0
  1  3  1  0  0  0  0
  1  5  1  0  0  0  0
  2  8  1  0  0  0  0
  4  1  1  0  0  0  0
  6  2  1  0  0  0  0
  6 10  1  0  0  0  0
  7  2  1  0  0  0  0
  9  6  1  0  0  0  0
  9 12  1  0  0  0  0
 11  6  1  0  0  0  0
 13  9  1  0  0  0  0
 14  9  1  0  0  0  0
M  END
$$$$
