14
butane_opt
C  -3.951664   0.270577   0.016168
C  -2.708652  -0.616110   0.033490
H  -4.899278  -0.322538   0.136274
H  -3.991755   0.996508  -0.945253
H  -3.913563   0.807884   0.811812
C  -1.402357   0.188148   0.023077
H  -2.721116  -1.346417  -0.844861
H  -2.706592  -1.220722   0.899375
C  -0.145899  -0.695124   0.032329
H  -1.341482   0.863205   0.880002
H  -1.380826   0.753710  -0.850546
H  -0.119410  -1.286397   0.921347
H   0.746171  -0.122765  -0.006567
H  -0.189951  -1.359821  -0.833749
