14
butane_opt
C  -3.929701   0.255981  -0.011762
C  -2.693450  -0.607282   0.045259
H  -4.853619  -0.384116   0.026123
H  -3.939781   0.894800  -0.913332
H  -3.924462   0.921341   0.852770
C  -1.410062   0.203051   0.055539
H  -2.746480  -1.227096  -0.766319
H  -2.746763  -1.268496   0.966845
C  -0.171510  -0.711495   0.009121
H  -1.411429   0.899615   0.945033
H  -1.427236   0.788093  -0.794790
H  -0.059774  -1.381300   0.917013
H   0.753349  -0.099302  -0.168417
H  -0.207997  -1.293237  -0.805906
