14
butane_opt
C  -3.948813   0.279154  -0.020746
C  -2.699029  -0.624335   0.081141
H  -4.857815  -0.318114  -0.078212
H  -3.920018   0.811542  -0.885068
H  -4.007198   1.006575   0.855177
C  -1.391554   0.173920   0.042889
H  -2.653572  -1.214108  -0.722252
H  -2.695636  -1.338061   1.048638
C  -0.176489  -0.688977  -0.006922
H  -1.338069   0.828657   0.895462
H  -1.407881   0.777014  -0.821821
H  -0.140986  -1.255650   0.849929
H   0.794856  -0.067029   0.035476
H  -0.208751  -1.375183  -0.888094
