butane_opt
 OpenBabel08242015403D

 14 13  0  0  0  0  0  0  0  0999 V2000
   -3.9454    0.2761   -0.0183 C   0  0  0  0  0  0  0  0  0  0  0  0
   -2.6885   -0.6313    0.0691 C   0  0  0  0  0  0  0  0  0  0  0  0
   -4.8519   -0.3193   -0.0090 H   0  0  0  0  0  0  0  0  0  0  0  0
   -3.9509    0.8824   -0.9018 H   0  0  0  0  0  0  0  0  0  0  0  0
   -4.0304    0.9361    0.8511 H   0  0  0  0  0  0  0  0  0  0  0  0
   -1.3996    0.1831    0.0488 C   0  0  0  0  0  0  0  0  0  0  0  0
   -2.6373   -1.2921   -0.7690 H   0  0  0  0  0  0  0  0  0  0  0  0
   -2.6902   -1.3092    0.9761 H   0  0  0  0  0  0  0  0  0  0  0  0
   -0.1758   -0.6851    0.0040 C   0  0  0  0  0  0  0  0  0  0  0  0
   -1.3944    0.8893    0.9142 H   0  0  0  0  0  0  0  0  0  0  0  0
   -1.3657    0.7548   -0.7927 H   0  0  0  0  0  0  0  0  0  0  0  0
   -0.0691   -1.3227    0.8771 H   0  0  0  0  0  0  0  0  0  0  0  0
    0.7368   -0.0866   -0.1206 H   0  0  0  0  0  0  0  0  0  0  0  0
   -0.2544   -1.3120   -0.8277 H   0  0  0  0  0  0  0  0  0  0  0  0
  1  3  1  0  0  0  0
  1  2  1  0  0  0  0
  1  5  1  0  0  0  0
  2  8  1  0  0  0  0
  4  1  1  0  0  0  0
  6  2  1  0  0  0  0
  6 10  1  0  0  0  0
  7  2  1  0  0  0  0
  9  6  1  0  0  0  0
  9 12  1  0  0  0  0
 11  6  1  0  0  0  0
 13  9  1  0  0  0  0
 14  9  1  0  0  0  0
M  END
$$$$
