14
butane_opt
C  -3.931648   0.258395  -0.003332
C  -2.691772  -0.607975   0.046660
H  -4.903692  -0.377485   0.173073
H  -3.981771   0.998714  -0.972337
H  -3.922711   0.800054   0.763437
C  -1.409618   0.200132   0.048502
H  -2.710603  -1.289188  -0.804070
H  -2.666716  -1.258815   0.940028
C  -0.171194  -0.700120   0.015136
H  -1.423313   0.872263   0.884561
H  -1.409812   0.786491  -0.829263
H  -0.102155  -1.269111   0.868366
H   0.733642  -0.117741   0.020792
H  -0.177407  -1.424959  -0.906892
