butane_opt
 OpenBabel08242015403D

 14 13  0  0  0  0  0  0  0  0999 V2000
   -3.9397    0.2537    0.0398 C   0  0  0  0  0  0  0  0  0  0  0  0
   -2.7067   -0.6170    0.0184 C   0  0  0  0  0  0  0  0  0  0  0  0
   -4.8610   -0.3436   -0.0987 H   0  0  0  0  0  0  0  0  0  0  0  0
   -3.9841    0.7675   -0.7515 H   0  0  0  0  0  0  0  0  0  0  0  0
   -4.0150    1.0716    0.9919 H   0  0  0  0  0  0  0  0  0  0  0  0
   -1.4103    0.2012   -0.0203 C   0  0  0  0  0  0  0  0  0  0  0  0
   -2.7372   -1.2742   -0.8123 H   0  0  0  0  0  0  0  0  0  0  0  0
   -2.6984   -1.2513    0.9424 H   0  0  0  0  0  0  0  0  0  0  0  0
   -0.1483   -0.7026    0.0536 C   0  0  0  0  0  0  0  0  0  0  0  0
   -1.4557    0.8710    0.8223 H   0  0  0  0  0  0  0  0  0  0  0  0
   -1.3372    0.8670   -0.9535 H   0  0  0  0  0  0  0  0  0  0  0  0
   -0.1177   -1.3853    0.9954 H   0  0  0  0  0  0  0  0  0  0  0  0
    0.7658   -0.1134   -0.0133 H   0  0  0  0  0  0  0  0  0  0  0  0
   -0.1148   -1.3153   -0.7722 H   0  0  0  0  0  0  0  0  0  0  0  0
  1  5  1  0  0  0  0
  2  1  1  0  0  0  0
  2  8  1  0  0  0  0
  3  1  1  0  0  0  0
  4  1  1  0  0  0  0
  6  2  1  0  0  0  0
  6  9  1  0  0  0  0
  6 10  1  0  0  0  0
  7  2  1  0  0  0  0
  9 12  1  0  0  0  0
 11  6  1  0  0  0  0
 13  9  1  0  0  0  0
 14  9  1  0  0  0  0
M  END
$$$$
