butane_opt
 OpenBabel08242015403D

 14 13  0  0  0  0  0  0  0  0999 V2000
   -3.9372    0.2777   -0.0054 C   0  0  0  0  0  0  0  0  0  0  0  0
   -2.7049   -0.6277    0.0805 C   0  0  0  0  0  0  0  0  0  0  0  0
   -4.8854   -0.3265   -0.1282 H   0  0  0  0  0  0  0  0  0  0  0  0
   -3.9247    0.7993   -0.8447 H   0  0  0  0  0  0  0  0  0  0  0  0
   -4.0107    1.0126    0.8737 H   0  0  0  0  0  0  0  0  0  0  0  0
   -1.3982    0.1750    0.0183 C   0  0  0  0  0  0  0  0  0  0  0  0
   -2.6641   -1.2696   -0.7382 H   0  0  0  0  0  0  0  0  0  0  0  0
   -2.7063   -1.2764    0.9858 H   0  0  0  0  0  0  0  0  0  0  0  0
   -0.1682   -0.6883    0.0064 C   0  0  0  0  0  0  0  0  0  0  0  0
   -1.3596    0.8991    0.9226 H   0  0  0  0  0  0  0  0  0  0  0  0
   -1.3894    0.7791   -0.8687 H   0  0  0  0  0  0  0  0  0  0  0  0
   -0.1526   -1.3126    0.8877 H   0  0  0  0  0  0  0  0  0  0  0  0
    0.7311   -0.0927   -0.0054 H   0  0  0  0  0  0  0  0  0  0  0  0
   -0.1598   -1.3339   -0.8370 H   0  0  0  0  0  0  0  0  0  0  0  0
  1  2  1  0  0  0  0
  1  5  1  0  0  0  0
  2  8  1  0  0  0  0
  3  1  1  0  0  0  0
  4  1  1  0  0  0  0
  6  2  1  0  0  0  0
  6 10  1  0  0  0  0
  7  2  1  0  0  0  0
  9  6  1  0  0  0  0
  9 12  1  0  0  0  0
 11  6  1  0  0  0  0
 13  9  1  0  0  0  0
 14  9  1  0  0  0  0
M  END
$$$$
