14
butane_opt
C  -3.941911   0.274696   0.001130
C  -2.702347  -0.628308   0.059138
H  -4.850628  -0.296267  -0.028057
H  -3.941799   0.868750  -0.882572
H  -3.947929   0.963331   0.867531
C  -1.397197   0.181677   0.028599
H  -2.660179  -1.283391  -0.788950
H  -2.705870  -1.292095   0.985047
C  -0.171791  -0.687132   0.008937
H  -1.366550   0.861812   0.875425
H  -1.394470   0.756488  -0.840164
H  -0.181756  -1.315967   0.904343
H   0.725634  -0.084896  -0.006149
H  -0.143942  -1.337224  -0.820080
