14
butane_opt
C  -3.951418   0.269965  -0.014855
C  -2.704115  -0.623351   0.053787
H  -4.863934  -0.316340   0.133522
H  -3.990664   0.964826  -0.938537
H  -3.953835   0.855746   0.790547
C  -1.400486   0.176336   0.049226
H  -2.657856  -1.263360  -0.763706
H  -2.753178  -1.268988   0.971164
C  -0.145583  -0.687162   0.005515
H  -1.386604   0.930982   0.959998
H  -1.437935   0.739767  -0.820725
H  -0.123249  -1.279163   0.897161
H   0.760515  -0.113687  -0.055637
H  -0.199353  -1.349246  -0.863366
