butane_opt
 OpenBabel08242015403D

 14 13  0  0  0  0  0  0  0  0999 V2000
   -3.9267    0.2624    0.0477 C   0  0  0  0  0  0  0  0  0  0  0  0
   -2.6960   -0.6100    0.0035 C   0  0  0  0  0  0  0  0  0  0  0  0
   -4.8490   -0.3335    0.0841 H   0  0  0  0  0  0  0  0  0  0  0  0
   -4.0021    0.8154   -0.7645 H   0  0  0  0  0  0  0  0  0  0  0  0
   -3.9298    0.9695    0.9223 H   0  0  0  0  0  0  0  0  0  0  0  0
   -1.4097    0.1885   -0.0276 C   0  0  0  0  0  0  0  0  0  0  0  0
   -2.7513   -1.2838   -0.8432 H   0  0  0  0  0  0  0  0  0  0  0  0
   -2.7120   -1.2433    0.8951 H   0  0  0  0  0  0  0  0  0  0  0  0
   -0.1666   -0.7014    0.0601 C   0  0  0  0  0  0  0  0  0  0  0  0
   -1.4484    0.8514    0.7884 H   0  0  0  0  0  0  0  0  0  0  0  0
   -1.3617    0.8336   -0.9457 H   0  0  0  0  0  0  0  0  0  0  0  0
   -0.2357   -1.3282    0.9767 H   0  0  0  0  0  0  0  0  0  0  0  0
    0.7616   -0.0874    0.1114 H   0  0  0  0  0  0  0  0  0  0  0  0
   -0.1033   -1.3441   -0.7814 H   0  0  0  0  0  0  0  0  0  0  0  0
  1  3  1  0  0  0  0
  1  5  1  0  0  0  0
  2  1  1  0  0  0  0
  2  8  1  0  0  0  0
  4  1  1  0  0  0  0
  6  2  1  0  0  0  0
  6  9  1  0  0  0  0
  6 10  1  0  0  0  0
  7  2  1  0  0  0  0
  9 13  1  0  0  0  0
  9 12  1  0  0  0  0
 11  6  1  0  0  0  0
 14  9  1  0  0  0  0
M  END
$$$$
