14
butane_opt
C  -3.956062   0.279325  -0.002287
C  -2.693133  -0.632839   0.054157
H  -4.833205  -0.318614  -0.012875
H  -3.987993   0.903151  -0.911956
H  -3.992841   0.924725   0.824465
C  -1.393573   0.177753   0.050541
H  -2.699678  -1.366021  -0.837359
H  -2.699622  -1.274662   0.954383
C  -0.170147  -0.681763   0.007276
H  -1.342199   0.874734   0.912113
H  -1.439386   0.812550  -0.817010
H  -0.059740  -1.385559   0.939855
H   0.744687  -0.084524  -0.122485
H  -0.167999  -1.255142  -0.799613
