butane_opt
 OpenBabel08242015403D

 14 13  0  0  0  0  0  0  0  0999 V2000
   -3.9560    0.2558    0.0463 C   0  0  0  0  0  0  0  0  0  0  0  0
   -2.7077   -0.6045    0.0124 C   0  0  0  0  0  0  0  0  0  0  0  0
   -4.8647   -0.3667    0.0268 H   0  0  0  0  0  0  0  0  0  0  0  0
   -3.9679    0.8848   -0.8681 H   0  0  0  0  0  0  0  0  0  0  0  0
   -3.9039    0.9502    0.9225 H   0  0  0  0  0  0  0  0  0  0  0  0
   -1.4007    0.2002   -0.0180 C   0  0  0  0  0  0  0  0  0  0  0  0
   -2.7675   -1.2660   -0.8333 H   0  0  0  0  0  0  0  0  0  0  0  0
   -2.6806   -1.2311    0.8988 H   0  0  0  0  0  0  0  0  0  0  0  0
   -0.1517   -0.7092    0.0489 C   0  0  0  0  0  0  0  0  0  0  0  0
   -1.4039    0.8544    0.8408 H   0  0  0  0  0  0  0  0  0  0  0  0
   -1.3387    0.7939   -0.8936 H   0  0  0  0  0  0  0  0  0  0  0  0
   -0.1762   -1.3417    0.9684 H   0  0  0  0  0  0  0  0  0  0  0  0
    0.7650   -0.1093    0.0657 H   0  0  0  0  0  0  0  0  0  0  0  0
   -0.0876   -1.3462   -0.7708 H   0  0  0  0  0  0  0  0  0  0  0  0
  1  5  1  0  0  0  0
  2  1  1  0  0  0  0
  2  8  1  0  0  0  0
  3  1  1  0  0  0  0
  4  1  1  0  0  0  0
  6  2  1  0  0  0  0
  6  9  1  0  0  0  0
  6 10  1  0  0  0  0
  7  2  1  0  0  0  0
  9 13  1  0  0  0  0
  9 12  1  0  0  0  0
 11  6  1  0  0  0  0
 14  9  1  0  0  0  0
M  END
$$$$
