14
butane_opt
C  -3.957612   0.272221   0.027905
C  -2.696582  -0.622220   0.041297
H  -4.840220  -0.278023  -0.085550
H  -3.916882   0.813816  -0.825480
H  -4.032879   1.008041   0.919402
C  -1.403161   0.169678  -0.003200
H  -2.754109  -1.304634  -0.828074
H  -2.700323  -1.250742   0.925201
C  -0.149348  -0.683455   0.042937
H  -1.367918   0.817983   0.829102
H  -1.414008   0.785109  -0.908254
H  -0.118183  -1.319729   0.934471
H   0.772422  -0.069795  -0.014091
H  -0.180979  -1.299643  -0.799700
