14
butane_opt
C  -3.926899   0.264822  -0.016182
C  -2.707861  -0.609732   0.070868
H  -4.870801  -0.373164   0.006131
H  -3.930979   0.926494  -0.971848
H  -3.997364   0.888190   0.822160
C  -1.408751   0.185671   0.062443
H  -2.664419  -1.292699  -0.776809
H  -2.725971  -1.228648   0.982605
C  -0.168857  -0.695661  -0.004967
H  -1.378963   0.870803   0.923510
H  -1.370250   0.790803  -0.823348
H  -0.028793  -1.344923   0.872901
H   0.725256  -0.117295  -0.071556
H  -0.225179  -1.333763  -0.869542
