butane_opt
 OpenBabel08242015403D

 14 13  0  0  0  0  0  0  0  0999 V2000
   -3.9209    0.2543    0.0423 C   0  0  0  0  0  0  0  0  0  0  0  0
   -2.7075   -0.6102    0.0069 C   0  0  0  0  0  0  0  0  0  0  0  0
   -4.8307   -0.3769    0.0630 H   0  0  0  0  0  0  0  0  0  0  0  0
   -3.9961    0.8303   -0.8019 H   0  0  0  0  0  0  0  0  0  0  0  0
   -3.8930    0.9551    0.9494 H   0  0  0  0  0  0  0  0  0  0  0  0
   -1.4227    0.2052   -0.0247 C   0  0  0  0  0  0  0  0  0  0  0  0
   -2.7097   -1.2562   -0.8255 H   0  0  0  0  0  0  0  0  0  0  0  0
   -2.6943   -1.2488    0.9294 H   0  0  0  0  0  0  0  0  0  0  0  0
   -0.1591   -0.7072    0.0600 C   0  0  0  0  0  0  0  0  0  0  0  0
   -1.4180    0.8468    0.7877 H   0  0  0  0  0  0  0  0  0  0  0  0
   -1.4250    0.8651   -0.9448 H   0  0  0  0  0  0  0  0  0  0  0  0
   -0.1699   -1.2797    0.9296 H   0  0  0  0  0  0  0  0  0  0  0  0
    0.7331   -0.1299    0.1385 H   0  0  0  0  0  0  0  0  0  0  0  0
   -0.0884   -1.3894   -0.7953 H   0  0  0  0  0  0  0  0  0  0  0  0
  1  3  1  0  0  0  0
  1  5  1  0  0  0  0
  2  1  1  0  0  0  0
  2  8  1  0  0  0  0
  4  1  1  0  0  0  0
  6  2  1  0  0  0  0
  6  9  1  0  0  0  0
  6 10  1  0  0  0  0
  7  2  1  0  0  0  0
  9 13  1  0  0  0  0
  9 12  1  0  0  0  0
 11  6  1  0  0  0  0
 14  9  1  0  0  0  0
M  END
$$$$
