14
butane_opt
C  -3.942536   0.274656  -0.004675
C  -2.682745  -0.630220   0.067945
H  -4.813390  -0.278149  -0.004475
H  -3.963919   0.897989  -0.905949
H  -4.005845   0.919747   0.837913
C  -1.402951   0.175858   0.023953
H  -2.718807  -1.256747  -0.765339
H  -2.734663  -1.337871   1.010254
C  -0.174327  -0.688077   0.019488
H  -1.376384   0.868367   0.870209
H  -1.426100   0.786881  -0.837770
H  -0.156266  -1.177798   0.811053
H   0.754292  -0.038261   0.040384
H  -0.158846  -1.435800  -0.911014
