14
butane_opt
C  -3.946319   0.276044   0.041771
C  -2.707067  -0.626329   0.015757
H  -4.856346  -0.325425  -0.093470
H  -3.982402   0.697847  -0.752895
H  -4.006413   1.103955   0.995495
C  -1.391662   0.183184  -0.019531
H  -2.734696  -1.280921  -0.815184
H  -2.721687  -1.269222   0.931911
C  -0.159145  -0.687288   0.051841
H  -1.394964   0.807631   0.789486
H  -1.382280   0.848840  -0.941529
H  -0.123301  -1.420212   1.016023
H   0.747576  -0.083968   0.018863
H  -0.123762  -1.297978  -0.757585
