butane_opt
 OpenBabel08242015403D

 14 13  0  0  0  0  0  0  0  0999 V2000
   -3.9543    0.2508    0.0184 C   0  0  0  0  0  0  0  0  0  0  0  0
   -2.7143   -0.6015    0.0367 C   0  0  0  0  0  0  0  0  0  0  0  0
   -4.8634   -0.3122   -0.0437 H   0  0  0  0  0  0  0  0  0  0  0  0
   -3.9268    0.7501   -0.8121 H   0  0  0  0  0  0  0  0  0  0  0  0
   -3.9752    1.0212    0.9577 H   0  0  0  0  0  0  0  0  0  0  0  0
   -1.3971    0.1953    0.0009 C   0  0  0  0  0  0  0  0  0  0  0  0
   -2.6947   -1.2111   -0.7611 H   0  0  0  0  0  0  0  0  0  0  0  0
   -2.7214   -1.2729    0.9332 H   0  0  0  0  0  0  0  0  0  0  0  0
   -0.1498   -0.7064    0.0347 C   0  0  0  0  0  0  0  0  0  0  0  0
   -1.3564    0.8438    0.8475 H   0  0  0  0  0  0  0  0  0  0  0  0
   -1.4102    0.8642   -0.9139 H   0  0  0  0  0  0  0  0  0  0  0  0
   -0.1318   -1.3130    0.9418 H   0  0  0  0  0  0  0  0  0  0  0  0
    0.7371   -0.1378    0.0186 H   0  0  0  0  0  0  0  0  0  0  0  0
   -0.0916   -1.3695   -0.8035 H   0  0  0  0  0  0  0  0  0  0  0  0
  1  2  1  0  0  0  0
  1  5  1  0  0  0  0
  2  8  1  0  0  0  0
  3  1  1  0  0  0  0
  4  1  1  0  0  0  0
  6  9  1  0  0  0  0
  6  2  1  0  0  0  0
  6 10  1  0  0  0  0
  7  2  1  0  0  0  0
  9 12  1  0  0  0  0
 11  6  1  0  0  0  0
 13  9  1  0  0  0  0
 14  9  1  0  0  0  0
M  END
$$$$
