14
butane_opt
C  -3.950780   0.256485  -0.004319
C  -2.708767  -0.614303   0.060271
H  -4.856493  -0.330773  -0.032245
H  -3.915129   0.888701  -0.903482
H  -3.975401   0.903273   0.861245
C  -1.399060   0.203420   0.047931
H  -2.701392  -1.270997  -0.806157
H  -2.800931  -1.207323   0.942356
C  -0.153972  -0.698105   0.006922
H  -1.346216   0.863358   0.886403
H  -1.420727   0.825773  -0.832840
H  -0.019295  -1.390037   0.950547
H   0.727711  -0.174158  -0.098593
H  -0.165889  -1.352915  -0.848398
