14
butane_opt
C  -3.945228   0.249489   0.011073
C  -2.696569  -0.607365   0.048681
H  -4.852919  -0.376333   0.066614
H  -4.004133   0.942802  -0.915866
H  -3.933826   0.859378   0.843875
C  -1.410885   0.204699   0.009225
H  -2.745600  -1.232941  -0.751790
H  -2.735181  -1.251769   0.948199
C  -0.157461  -0.703482   0.018658
H  -1.414507   0.911347   0.907483
H  -1.381585   0.818103  -0.856488
H  -0.136691  -1.265981   0.875293
H   0.725329  -0.145098   0.134055
H  -0.020227  -1.457112  -0.886139
