butane_opt
 OpenBabel08242015403D

 14 13  0  0  0  0  0  0  0  0999 V2000
   -3.9345    0.2689   -0.0038 C   0  0  0  0  0  0  0  0  0  0  0  0
   -2.6952   -0.6170    0.0616 C   0  0  0  0  0  0  0  0  0  0  0  0
   -4.8481   -0.3378    0.0445 H   0  0  0  0  0  0  0  0  0  0  0  0
   -4.0108    0.9550   -0.9424 H   0  0  0  0  0  0  0  0  0  0  0  0
   -3.9618    0.8915    0.7941 H   0  0  0  0  0  0  0  0  0  0  0  0
   -1.4137    0.1674    0.0359 C   0  0  0  0  0  0  0  0  0  0  0  0
   -2.6667   -1.3007   -0.7850 H   0  0  0  0  0  0  0  0  0  0  0  0
   -2.7356   -1.2532    0.9484 H   0  0  0  0  0  0  0  0  0  0  0  0
   -0.1652   -0.6874    0.0069 C   0  0  0  0  0  0  0  0  0  0  0  0
   -1.3336    0.9559    0.9532 H   0  0  0  0  0  0  0  0  0  0  0  0
   -1.4286    0.7506   -0.8185 H   0  0  0  0  0  0  0  0  0  0  0  0
   -0.1357   -1.3304    0.9231 H   0  0  0  0  0  0  0  0  0  0  0  0
    0.7726   -0.0519   -0.0425 H   0  0  0  0  0  0  0  0  0  0  0  0
   -0.1741   -1.3326   -0.8454 H   0  0  0  0  0  0  0  0  0  0  0  0
  1  3  1  0  0  0  0
  1  2  1  0  0  0  0
  1  5  1  0  0  0  0
  2  8  1  0  0  0  0
  4  1  1  0  0  0  0
  6  2  1  0  0  0  0
  6 10  1  0  0  0  0
  7  2  1  0  0  0  0
  9  6  1  0  0  0  0
  9 12  1  0  0  0  0
 11  6  1  0  0  0  0
 13  9  1  0  0  0  0
 14  9  1  0  0  0  0
M  END
$$$$
