butane_opt
 OpenBabel08242015403D

 14 13  0  0  0  0  0  0  0  0999 V2000
   -3.9630    0.2532    0.0440 C   0  0  0  0  0  0  0  0  0  0  0  0
   -2.7039   -0.6024    0.0260 C   0  0  0  0  0  0  0  0  0  0  0  0
   -4.8713   -0.3439   -0.0358 H   0  0  0  0  0  0  0  0  0  0  0  0
   -3.9110    0.7483   -0.8178 H   0  0  0  0  0  0  0  0  0  0  0  0
   -4.0037    1.0024    0.9703 H   0  0  0  0  0  0  0  0  0  0  0  0
   -1.3979    0.1909   -0.0217 C   0  0  0  0  0  0  0  0  0  0  0  0
   -2.7101   -1.2925   -0.8321 H   0  0  0  0  0  0  0  0  0  0  0  0
   -2.7131   -1.1756    0.8715 H   0  0  0  0  0  0  0  0  0  0  0  0
   -0.1471   -0.7007    0.0551 C   0  0  0  0  0  0  0  0  0  0  0  0
   -1.4024    0.8184    0.7924 H   0  0  0  0  0  0  0  0  0  0  0  0
   -1.4103    0.9072   -0.9495 H   0  0  0  0  0  0  0  0  0  0  0  0
   -0.1312   -1.3423    0.9732 H   0  0  0  0  0  0  0  0  0  0  0  0
    0.7349   -0.1313    0.0288 H   0  0  0  0  0  0  0  0  0  0  0  0
   -0.0598   -1.3619   -0.7859 H   0  0  0  0  0  0  0  0  0  0  0  0
  1  5  1  0  0  0  0
  2  1  1  0  0  0  0
  2  8  1  0  0  0  0
  3  1  1  0  0  0  0
  4  1  1  0  0  0  0
  6  2  1  0  0  0  0
  6  9  1  0  0  0  0
  6 10  1  0  0  0  0
  7  2  1  0  0  0  0
  9 12  1  0  0  0  0
 11  6  1  0  0  0  0
 13  9  1  0  0  0  0
 14  9  1  0  0  0  0
M  END
$$$$
