butane_opt
 OpenBabel08242015403D

 14 13  0  0  0  0  0  0  0  0999 V2000
   -3.9163    0.2528   -0.0096 C   0  0  0  0  0  0  0  0  0  0  0  0
   -2.7136   -0.6056    0.0844 C   0  0  0  0  0  0  0  0  0  0  0  0
   -4.8576   -0.3501    0.0451 H   0  0  0  0  0  0  0  0  0  0  0  0
   -3.9311    0.9524   -0.9549 H   0  0  0  0  0  0  0  0  0  0  0  0
   -3.9916    0.8947    0.8208 H   0  0  0  0  0  0  0  0  0  0  0  0
   -1.4140    0.1925    0.0284 C   0  0  0  0  0  0  0  0  0  0  0  0
   -2.6930   -1.2670   -0.7705 H   0  0  0  0  0  0  0  0  0  0  0  0
   -2.7408   -1.2376    0.9757 H   0  0  0  0  0  0  0  0  0  0  0  0
   -0.1626   -0.7041    0.0082 C   0  0  0  0  0  0  0  0  0  0  0  0
   -1.3871    0.8674    0.8643 H   0  0  0  0  0  0  0  0  0  0  0  0
   -1.4179    0.8225   -0.8510 H   0  0  0  0  0  0  0  0  0  0  0  0
   -0.1804   -1.1796    0.8041 H   0  0  0  0  0  0  0  0  0  0  0  0
    0.7500   -0.1239    0.1053 H   0  0  0  0  0  0  0  0  0  0  0  0
   -0.0853   -1.4878   -0.9536 H   0  0  0  0  0  0  0  0  0  0  0  0
  1  3  1  0  0  0  0
  1  2  1  0  0  0  0
  1  5  1  0  0  0  0
  2  8  1  0  0  0  0
  4  1  1  0  0  0  0
  6  2  1  0  0  0  0
  6 10  1  0  0  0  0
  7  2  1  0  0  0  0
  9  6  1  0  0  0  0
  9 13  1  0  0  0  0
  9 12  1  0  0  0  0
 11  6  1  0  0  0  0
 14  9  1  0  0  0  0
M  END
$$$$
