14
butane_opt
C  -3.954315   0.269596  -0.004321
C  -2.687754  -0.616895   0.056072
H  -4.851112  -0.315442   0.069859
H  -4.011778   0.973933  -0.953483
H  -3.960494   0.850307   0.781861
C  -1.403689   0.164825   0.047706
H  -2.663932  -1.281412  -0.777260
H  -2.700109  -1.262192   0.960589
C  -0.163911  -0.682304   0.005207
H  -1.380704   0.862830   0.945663
H  -1.338475   0.812890  -0.854911
H  -0.133442  -1.260968   0.872409
H   0.755400  -0.075309   0.001668
H  -0.221762  -1.397632  -0.881699
