14
butane_opt
C  -3.931557   0.250710  -0.006394
C  -2.697836  -0.605774   0.051052
H  -4.827042  -0.349882   0.203198
H  -3.966615   0.999056  -0.994742
H  -3.892013   0.811398   0.788241
C  -1.413313   0.208591   0.038298
H  -2.724717  -1.295907  -0.820360
H  -2.791470  -1.214458   0.959959
C  -0.162007  -0.707545   0.012198
H  -1.376538   0.916253   0.917624
H  -1.461447   0.754332  -0.791244
H  -0.126103  -1.312080   0.885383
H   0.742931  -0.122273   0.021130
H  -0.141537  -1.403481  -0.877479
