14
butane_opt
C  -3.960373   0.278723   0.032494
C  -2.693470  -0.631513   0.019080
H  -4.859400  -0.320846   0.011199
H  -4.022455   0.824561  -0.837762
H  -3.999252   1.014863   0.934678
C  -1.385610   0.182016   0.005029
H  -2.701290  -1.379149  -0.878127
H  -2.752138  -1.210155   0.867860
C  -0.165075  -0.684783   0.049106
H  -1.344341   0.831134   0.809866
H  -1.376824   0.808238  -0.887620
H  -0.061753  -1.441267   1.023499
H   0.739911  -0.085612  -0.117099
H  -0.192946  -1.238041  -0.725731
