butane_opt
 OpenBabel08242015403D

 14 13  0  0  0  0  0  0  0  0999 V2000
   -3.9411    0.2658    0.0364 C   0  0  0  0  0  0  0  0  0  0  0  0
   -2.6936   -0.6156    0.0221 C   0  0  0  0  0  0  0  0  0  0  0  0
   -4.8574   -0.3338   -0.0135 H   0  0  0  0  0  0  0  0  0  0  0  0
   -3.9435    0.7582   -0.7601 H   0  0  0  0  0  0  0  0  0  0  0  0
   -3.9673    1.0344    0.9849 H   0  0  0  0  0  0  0  0  0  0  0  0
   -1.4040    0.1774   -0.0223 C   0  0  0  0  0  0  0  0  0  0  0  0
   -2.7206   -1.3208   -0.8628 H   0  0  0  0  0  0  0  0  0  0  0  0
   -2.6894   -1.1822    0.8880 H   0  0  0  0  0  0  0  0  0  0  0  0
   -0.1582   -0.6954    0.0610 C   0  0  0  0  0  0  0  0  0  0  0  0
   -1.4675    0.8140    0.8053 H   0  0  0  0  0  0  0  0  0  0  0  0
   -1.3881    0.8865   -0.9548 H   0  0  0  0  0  0  0  0  0  0  0  0
   -0.1935   -1.3462    1.0033 H   0  0  0  0  0  0  0  0  0  0  0  0
    0.7593   -0.0845   -0.0199 H   0  0  0  0  0  0  0  0  0  0  0  0
   -0.1867   -1.2931   -0.7838 H   0  0  0  0  0  0  0  0  0  0  0  0
  1  5  1  0  0  0  0
  2  1  1  0  0  0  0
  2  8  1  0  0  0  0
  3  1  1  0  0  0  0
  4  1  1  0  0  0  0
  6  2  1  0  0  0  0
  6  9  1  0  0  0  0
  6 10  1  0  0  0  0
  7  2  1  0  0  0  0
  9 12  1  0  0  0  0
 11  6  1  0  0  0  0
 13  9  1  0  0  0  0
 14  9  1  0  0  0  0
M  END
$$$$
