14
butane_opt
C  -3.933307   0.258415   0.048938
C  -2.711184  -0.599689   0.001969
H  -4.872922  -0.364511   0.088923
H  -4.031028   0.887128  -0.834871
H  -3.908110   0.906725   0.912804
C  -1.409169   0.183739  -0.019693
H  -2.795222  -1.287867  -0.853146
H  -2.661251  -1.226263   0.889171
C  -0.153092  -0.704211   0.064751
H  -1.410583   0.854657   0.799870
H  -1.333494   0.878929  -0.969252
H  -0.168563  -1.283203   0.942257
H   0.733617  -0.101196   0.106934
H  -0.086171  -1.406640  -0.807644
