butane_opt
 OpenBabel08242015403D

 14 13  0  0  0  0  0  0  0  0999 V2000
   -3.9432    0.2734    0.0400 C   0  0  0  0  0  0  0  0  0  0  0  0
   -2.7049   -0.6250    0.0245 C   0  0  0  0  0  0  0  0  0  0  0  0
   -4.8355   -0.3035   -0.0433 H   0  0  0  0  0  0  0  0  0  0  0  0
   -3.9677    0.8539   -0.8296 H   0  0  0  0  0  0  0  0  0  0  0  0
   -4.0506    1.0108    0.9394 H   0  0  0  0  0  0  0  0  0  0  0  0
   -1.4037    0.1808   -0.0166 C   0  0  0  0  0  0  0  0  0  0  0  0
   -2.7466   -1.3337   -0.8262 H   0  0  0  0  0  0  0  0  0  0  0  0
   -2.7168   -1.2975    0.9373 H   0  0  0  0  0  0  0  0  0  0  0  0
   -0.1574   -0.6850    0.0415 C   0  0  0  0  0  0  0  0  0  0  0  0
   -1.3598    0.8651    0.8376 H   0  0  0  0  0  0  0  0  0  0  0  0
   -1.3361    0.7740   -0.8968 H   0  0  0  0  0  0  0  0  0  0  0  0
   -0.1414   -1.3488    0.9967 H   0  0  0  0  0  0  0  0  0  0  0  0
    0.7699   -0.1070    0.0465 H   0  0  0  0  0  0  0  0  0  0  0  0
   -0.1298   -1.3074   -0.7839 H   0  0  0  0  0  0  0  0  0  0  0  0
  1  5  1  0  0  0  0
  2  1  1  0  0  0  0
  2  8  1  0  0  0  0
  3  1  1  0  0  0  0
  4  1  1  0  0  0  0
  6  2  1  0  0  0  0
  6  9  1  0  0  0  0
  6 10  1  0  0  0  0
  7  2  1  0  0  0  0
  9 13  1  0  0  0  0
  9 12  1  0  0  0  0
 11  6  1  0  0  0  0
 14  9  1  0  0  0  0
M  END
$$$$
