butane_opt
 OpenBabel08242015403D

 14 13  0  0  0  0  0  0  0  0999 V2000
   -3.9363    0.2649   -0.0089 C   0  0  0  0  0  0  0  0  0  0  0  0
   -2.6907   -0.6192    0.0614 C   0  0  0  0  0  0  0  0  0  0  0  0
   -4.8567   -0.3436    0.0045 H   0  0  0  0  0  0  0  0  0  0  0  0
   -3.9437    0.9316   -0.9244 H   0  0  0  0  0  0  0  0  0  0  0  0
   -3.9968    0.9455    0.8573 H   0  0  0  0  0  0  0  0  0  0  0  0
   -1.4068    0.1781    0.0397 C   0  0  0  0  0  0  0  0  0  0  0  0
   -2.6653   -1.3193   -0.7624 H   0  0  0  0  0  0  0  0  0  0  0  0
   -2.7315   -1.2596    0.9696 H   0  0  0  0  0  0  0  0  0  0  0  0
   -0.1772   -0.6864    0.0076 C   0  0  0  0  0  0  0  0  0  0  0  0
   -1.3607    0.8998    0.9302 H   0  0  0  0  0  0  0  0  0  0  0  0
   -1.4454    0.7715   -0.8161 H   0  0  0  0  0  0  0  0  0  0  0  0
   -0.0855   -1.3287    0.9205 H   0  0  0  0  0  0  0  0  0  0  0  0
    0.7327   -0.0851   -0.0938 H   0  0  0  0  0  0  0  0  0  0  0  0
   -0.1440   -1.3269   -0.8425 H   0  0  0  0  0  0  0  0  0  0  0  0
  1  3  1  0  0  0  0
  1  2  1  0  0  0  0
  1  5  1  0  0  0  0
  2  8  1  0  0  0  0
  4  1  1  0  0  0  0
  6  2  1  0  0  0  0
  6 10  1  0  0  0  0
  7  2  1  0  0  0  0
  9  6  1  0  0  0  0
  9 12  1  0  0  0  0
 11  6  1  0  0  0  0
 13  9  1  0  0  0  0
 14  9  1  0  0  0  0
M  END
$$$$
