14
butane_opt
C  -3.946922   0.252957   0.045145
C  -2.712105  -0.602679   0.010903
H  -4.839718  -0.322338   0.027591
H  -3.946430   0.849349  -0.846816
H  -3.978597   0.907000   0.893158
C  -1.403263   0.198549  -0.003439
H  -2.727767  -1.337572  -0.885506
H  -2.698016  -1.200600   0.877284
C  -0.152176  -0.703311   0.050178
H  -1.414457   0.894042   0.853260
H  -1.349421   0.857284  -0.896904
H  -0.076284  -1.444980   0.992098
H   0.741396  -0.136485  -0.046987
H  -0.155805  -1.284655  -0.748261
