butane_opt
 OpenBabel08242015403D

 14 13  0  0  0  0  0  0  0  0999 V2000
   -3.9437    0.2806   -0.0122 C   0  0  0  0  0  0  0  0  0  0  0  0
   -2.6923   -0.6230    0.0708 C   0  0  0  0  0  0  0  0  0  0  0  0
   -4.9051   -0.3453   -0.0623 H   0  0  0  0  0  0  0  0  0  0  0  0
   -3.9444    0.8961   -0.9120 H   0  0  0  0  0  0  0  0  0  0  0  0
   -3.9958    0.9572    0.8233 H   0  0  0  0  0  0  0  0  0  0  0  0
   -1.3977    0.1708    0.0551 C   0  0  0  0  0  0  0  0  0  0  0  0
   -2.6879   -1.3093   -0.7753 H   0  0  0  0  0  0  0  0  0  0  0  0
   -2.7402   -1.3039    0.9908 H   0  0  0  0  0  0  0  0  0  0  0  0
   -0.1699   -0.6843    0.0024 C   0  0  0  0  0  0  0  0  0  0  0  0
   -1.3765    0.8632    0.8979 H   0  0  0  0  0  0  0  0  0  0  0  0
   -1.3654    0.7772   -0.8365 H   0  0  0  0  0  0  0  0  0  0  0  0
   -0.0809   -1.3159    0.9114 H   0  0  0  0  0  0  0  0  0  0  0  0
    0.7607   -0.0766   -0.1155 H   0  0  0  0  0  0  0  0  0  0  0  0
   -0.2476   -1.3428   -0.8788 H   0  0  0  0  0  0  0  0  0  0  0  0
  1  2  1  0  0  0  0
  1  5  1  0  0  0  0
  2  8  1  0  0  0  0
  3  1  1  0  0  0  0
  4  1  1  0  0  0  0
  6  2  1  0  0  0  0
  6 10  1  0  0  0  0
  7  2  1  0  0  0  0
  9  6  1  0  0  0  0
  9 12  1  0  0  0  0
 11  6  1  0  0  0  0
 13  9  1  0  0  0  0
 14  9  1  0  0  0  0
M  END
$$$$
