14
butane_opt
C  -3.953657   0.273122  -0.019181
C  -2.697226  -0.618336   0.090815
H  -4.862426  -0.319986  -0.107703
H  -3.863531   0.816821  -0.889325
H  -4.049661   0.977833   0.850885
C  -1.388644   0.177681   0.041748
H  -2.677406  -1.273368  -0.742562
H  -2.716648  -1.302829   0.989293
C  -0.167190  -0.689865   0.001042
H  -1.331101   0.862196   0.903133
H  -1.439915   0.827338  -0.859159
H  -0.090222  -1.279424   0.875607
H   0.730547  -0.081391  -0.031662
H  -0.245376  -1.413351  -0.912734
