14
butane_opt
C  -3.938021   0.254072   0.008528
C  -2.696919  -0.598424   0.053084
H  -4.891557  -0.383840   0.049454
H  -3.932015   0.889461  -0.909932
H  -3.912210   0.921826   0.871482
C  -1.407197   0.196040   0.001310
H  -2.729854  -1.217096  -0.750320
H  -2.722228  -1.263071   0.967091
C  -0.167210  -0.709348   0.028815
H  -1.370516   0.853151   0.859217
H  -1.401240   0.819476  -0.857915
H  -0.148083  -1.196795   0.857153
H   0.751787  -0.133943   0.148270
H  -0.145293  -1.477996  -0.906073
