butane_opt
 OpenBabel08242015403D

 14 13  0  0  0  0  0  0  0  0999 V2000
   -3.9613    0.2701   -0.0053 C   0  0  0  0  0  0  0  0  0  0  0  0
   -2.6980   -0.6225    0.0628 C   0  0  0  0  0  0  0  0  0  0  0  0
   -4.8677   -0.3143    0.0567 H   0  0  0  0  0  0  0  0  0  0  0  0
   -3.9715    0.9571   -0.9801 H   0  0  0  0  0  0  0  0  0  0  0  0
   -3.9419    0.8647    0.8059 H   0  0  0  0  0  0  0  0  0  0  0  0
   -1.4055    0.1794    0.0356 C   0  0  0  0  0  0  0  0  0  0  0  0
   -2.7428   -1.2937   -0.7844 H   0  0  0  0  0  0  0  0  0  0  0  0
   -2.6689   -1.2971    0.9804 H   0  0  0  0  0  0  0  0  0  0  0  0
   -0.1519   -0.6931    0.0085 C   0  0  0  0  0  0  0  0  0  0  0  0
   -1.3487    0.9495    0.9272 H   0  0  0  0  0  0  0  0  0  0  0  0
   -1.3845    0.7626   -0.8197 H   0  0  0  0  0  0  0  0  0  0  0  0
   -0.1019   -1.2452    0.8693 H   0  0  0  0  0  0  0  0  0  0  0  0
    0.7514   -0.0962    0.0172 H   0  0  0  0  0  0  0  0  0  0  0  0
   -0.1487   -1.3624   -0.8687 H   0  0  0  0  0  0  0  0  0  0  0  0
  1  3  1  0  0  0  0
  1  2  1  0  0  0  0
  1  5  1  0  0  0  0
  2  8  1  0  0  0  0
  4  1  1  0  0  0  0
  6  2  1  0  0  0  0
  6 10  1  0  0  0  0
  7  2  1  0  0  0  0
  9 13  1  0  0  0  0
  9  6  1  0  0  0  0
  9 12  1  0  0  0  0
 11  6  1  0  0  0  0
 14  9  1  0  0  0  0
M  END
$$$$
