14
butane_opt
C  -3.928788   0.250188  -0.001168
C  -2.702937  -0.601047   0.050724
H  -4.843467  -0.362956   0.106217
H  -3.931512   0.934006  -0.941862
H  -3.950179   0.851332   0.785899
C  -1.404565   0.197767   0.031556
H  -2.733856  -1.242945  -0.768570
H  -2.729414  -1.213829   0.959840
C  -0.165855  -0.707191   0.013514
H  -1.377293   0.929903   0.938188
H  -1.449068   0.780427  -0.825119
H  -0.101090  -1.295280   0.903408
H   0.690060  -0.141593   0.004248
H  -0.163902  -1.398459  -0.864702
