butane_opt
 OpenBabel08242015403D

 14 13  0  0  0  0  0  0  0  0999 V2000
   -3.9632    0.2743    0.0308 C   0  0  0  0  0  0  0  0  0  0  0  0
   -2.7026   -0.6241    0.0466 C   0  0  0  0  0  0  0  0  0  0  0  0
   -4.8256   -0.3060   -0.1478 H   0  0  0  0  0  0  0  0  0  0  0  0
   -3.9325    0.7652   -0.7685 H   0  0  0  0  0  0  0  0  0  0  0  0
   -4.0206    1.0577    0.9729 H   0  0  0  0  0  0  0  0  0  0  0  0
   -1.3970    0.1733   -0.0161 C   0  0  0  0  0  0  0  0  0  0  0  0
   -2.7414   -1.3150   -0.8376 H   0  0  0  0  0  0  0  0  0  0  0  0
   -2.7136   -1.2120    0.8983 H   0  0  0  0  0  0  0  0  0  0  0  0
   -0.1506   -0.6844    0.0453 C   0  0  0  0  0  0  0  0  0  0  0  0
   -1.3460    0.7898    0.8097 H   0  0  0  0  0  0  0  0  0  0  0  0
   -1.3960    0.8322   -0.9403 H   0  0  0  0  0  0  0  0  0  0  0  0
   -0.1412   -1.3517    0.9839 H   0  0  0  0  0  0  0  0  0  0  0  0
    0.7757   -0.0816   -0.0035 H   0  0  0  0  0  0  0  0  0  0  0  0
   -0.1331   -1.3122   -0.7893 H   0  0  0  0  0  0  0  0  0  0  0  0
  1  2  1  0  0  0  0
  1  5  1  0  0  0  0
  2  8  1  0  0  0  0
  3  1  1  0  0  0  0
  4  1  1  0  0  0  0
  6  9  1  0  0  0  0
  6  2  1  0  0  0  0
  6 10  1  0  0  0  0
  7  2  1  0  0  0  0
  9 12  1  0  0  0  0
 11  6  1  0  0  0  0
 13  9  1  0  0  0  0
 14  9  1  0  0  0  0
M  END
$$$$
