14
butane_opt
C  -3.925792   0.254138   0.050641
C  -2.703600  -0.607631   0.012055
H  -4.826299  -0.351642   0.015557
H  -3.984706   0.829844  -0.802693
H  -3.896937   1.000664   0.969621
C  -1.419813   0.194683  -0.033823
H  -2.754651  -1.306722  -0.859573
H  -2.655206  -1.274524   0.890645
C  -0.164509  -0.704590   0.059293
H  -1.424268   0.861957   0.797248
H  -1.427206   0.868985  -0.958083
H  -0.217518  -1.309204   0.960412
H   0.755422  -0.103258   0.148104
H  -0.027830  -1.325634  -0.773822
