14
butane_opt
C  -3.939940   0.279633   0.058867
C  -2.689506  -0.628094  -0.014362
H  -4.859630  -0.332535   0.176479
H  -4.048978   0.969441  -0.864324
H  -3.914704   0.876774   0.872062
C  -1.400388   0.171239  -0.014498
H  -2.755770  -1.365596  -0.914847
H  -2.613851  -1.201472   0.827511
C  -0.178907  -0.688426   0.067903
H  -1.363229   0.833369   0.795773
H  -1.320024   0.821838  -0.926863
H  -0.213845  -1.317150   0.964193
H   0.750178  -0.088440   0.065645
H  -0.169942  -1.278032  -0.733287
