14
butane_opt
C  -3.933281   0.273589   0.003319
C  -2.691472  -0.619389   0.039354
H  -4.881726  -0.336433   0.198922
H  -3.996884   1.019911  -0.958509
H  -3.936320   0.823277   0.789470
C  -1.415823   0.169417   0.030947
H  -2.710203  -1.306441  -0.814270
H  -2.704842  -1.285315   0.939255
C  -0.164854  -0.690577   0.015230
H  -1.409560   0.931118   0.940144
H  -1.378306   0.751158  -0.820911
H  -0.177049  -1.252127   0.897823
H   0.797647  -0.066521   0.034771
H  -0.162876  -1.340706  -0.848584
