14
butane_opt
C  -3.940127   0.256596  -0.006895
C  -2.689975  -0.604158   0.046728
H  -4.882186  -0.364241   0.180569
H  -3.987589   0.986457  -0.969103
H  -3.893225   0.772377   0.773284
C  -1.415320   0.197554   0.050868
H  -2.685574  -1.297982  -0.793276
H  -2.728537  -1.250923   0.938090
C  -0.167908  -0.704818   0.010196
H  -1.364793   0.879207   0.929444
H  -1.414265   0.865066  -0.849375
H  -0.085707  -1.263268   0.840692
H   0.740836  -0.119978   0.047067
H  -0.159272  -1.420273  -0.882031
