butane_opt
 OpenBabel08242015403D

 14 13  0  0  0  0  0  0  0  0999 V2000
   -3.9476    0.2599    0.0048 C   0  0  0  0  0  0  0  0  0  0  0  0
   -2.7112   -0.6108    0.0680 C   0  0  0  0  0  0  0  0  0  0  0  0
   -4.8722   -0.3655   -0.1017 H   0  0  0  0  0  0  0  0  0  0  0  0
   -3.8620    0.7850   -0.8377 H   0  0  0  0  0  0  0  0  0  0  0  0
   -4.0716    1.0189    0.9313 H   0  0  0  0  0  0  0  0  0  0  0  0
   -1.3934    0.2063    0.0078 C   0  0  0  0  0  0  0  0  0  0  0  0
   -2.7420   -1.3235   -0.7769 H   0  0  0  0  0  0  0  0  0  0  0  0
   -2.7237   -1.2495    0.9709 H   0  0  0  0  0  0  0  0  0  0  0  0
   -0.1564   -0.7050    0.0219 C   0  0  0  0  0  0  0  0  0  0  0  0
   -1.4069    0.8800    0.8558 H   0  0  0  0  0  0  0  0  0  0  0  0
   -1.3804    0.8374   -0.8783 H   0  0  0  0  0  0  0  0  0  0  0  0
   -0.0756   -1.3535    0.9154 H   0  0  0  0  0  0  0  0  0  0  0  0
    0.7299   -0.1280   -0.0270 H   0  0  0  0  0  0  0  0  0  0  0  0
   -0.1124   -1.3817   -0.8334 H   0  0  0  0  0  0  0  0  0  0  0  0
  1  2  1  0  0  0  0
  1  5  1  0  0  0  0
  2  8  1  0  0  0  0
  3  1  1  0  0  0  0
  4  1  1  0  0  0  0
  6  9  1  0  0  0  0
  6  2  1  0  0  0  0
  6 10  1  0  0  0  0
  7  2  1  0  0  0  0
  9 12  1  0  0  0  0
 11  6  1  0  0  0  0
 13  9  1  0  0  0  0
 14  9  1  0  0  0  0
M  END
$$$$
