butane_opt
 OpenBabel08242015403D

 14 13  0  0  0  0  0  0  0  0999 V2000
   -3.9560    0.2588   -0.0134 C   0  0  0  0  0  0  0  0  0  0  0  0
   -2.7000   -0.6103    0.0661 C   0  0  0  0  0  0  0  0  0  0  0  0
   -4.8456   -0.3264   -0.0030 H   0  0  0  0  0  0  0  0  0  0  0  0
   -4.0020    0.8998   -0.9379 H   0  0  0  0  0  0  0  0  0  0  0  0
   -3.9817    0.8797    0.8387 H   0  0  0  0  0  0  0  0  0  0  0  0
   -1.4016    0.1944    0.0597 C   0  0  0  0  0  0  0  0  0  0  0  0
   -2.6471   -1.3089   -0.7957 H   0  0  0  0  0  0  0  0  0  0  0  0
   -2.7465   -1.2613    0.9587 H   0  0  0  0  0  0  0  0  0  0  0  0
   -0.1547   -0.6923   -0.0052 C   0  0  0  0  0  0  0  0  0  0  0  0
   -1.3693    0.8721    0.9327 H   0  0  0  0  0  0  0  0  0  0  0  0
   -1.3785    0.8276   -0.8368 H   0  0  0  0  0  0  0  0  0  0  0  0
   -0.0567   -1.3753    0.9446 H   0  0  0  0  0  0  0  0  0  0  0  0
    0.7362   -0.1217   -0.0887 H   0  0  0  0  0  0  0  0  0  0  0  0
   -0.1820   -1.3611   -0.8602 H   0  0  0  0  0  0  0  0  0  0  0  0
  1  3  1  0  0  0  0
  1  2  1  0  0  0  0
  1  5  1  0  0  0  0
  2  8  1  0  0  0  0
  4  1  1  0  0  0  0
  6  2  1  0  0  0  0
  6 10  1  0  0  0  0
  7  2  1  0  0  0  0
  9  6  1  0  0  0  0
  9 12  1  0  0  0  0
 11  6  1  0  0  0  0
 13  9  1  0  0  0  0
 14  9  1  0  0  0  0
M  END
$$$$
