butane_opt
 OpenBabel08242015403D

 14 13  0  0  0  0  0  0  0  0999 V2000
   -3.9407    0.2758   -0.0003 C   0  0  0  0  0  0  0  0  0  0  0  0
   -2.6941   -0.6251    0.0754 C   0  0  0  0  0  0  0  0  0  0  0  0
   -4.8170   -0.2941   -0.0536 H   0  0  0  0  0  0  0  0  0  0  0  0
   -3.8852    0.8436   -0.8670 H   0  0  0  0  0  0  0  0  0  0  0  0
   -4.0866    0.9815    0.8558 H   0  0  0  0  0  0  0  0  0  0  0  0
   -1.3935    0.1656    0.0160 C   0  0  0  0  0  0  0  0  0  0  0  0
   -2.7073   -1.3200   -0.7797 H   0  0  0  0  0  0  0  0  0  0  0  0
   -2.6821   -1.2584    0.9828 H   0  0  0  0  0  0  0  0  0  0  0  0
   -0.1757   -0.6794    0.0187 C   0  0  0  0  0  0  0  0  0  0  0  0
   -1.3391    0.8512    0.8582 H   0  0  0  0  0  0  0  0  0  0  0  0
   -1.4129    0.8277   -0.8774 H   0  0  0  0  0  0  0  0  0  0  0  0
   -0.1752   -1.2610    0.8828 H   0  0  0  0  0  0  0  0  0  0  0  0
    0.7180   -0.0749    0.0361 H   0  0  0  0  0  0  0  0  0  0  0  0
   -0.1885   -1.4155   -0.9122 H   0  0  0  0  0  0  0  0  0  0  0  0
  1  2  1  0  0  0  0
  1  5  1  0  0  0  0
  2  8  1  0  0  0  0
  3  1  1  0  0  0  0
  4  1  1  0  0  0  0
  6  9  1  0  0  0  0
  6  2  1  0  0  0  0
  6 10  1  0  0  0  0
  7  2  1  0  0  0  0
  9 13  1  0  0  0  0
  9 12  1  0  0  0  0
 11  6  1  0  0  0  0
 14  9  1  0  0  0  0
M  END
$$$$
