14
butane_opt
C  -3.951169   0.253777  -0.005314
C  -2.700323  -0.620237   0.065811
H  -4.828794  -0.310321  -0.025234
H  -3.901360   0.860160  -0.907101
H  -4.033224   0.997441   0.875035
C  -1.404015   0.197601   0.042194
H  -2.745006  -1.278976  -0.801548
H  -2.766193  -1.241103   0.970009
C  -0.148881  -0.699487   0.010612
H  -1.409185   0.873570   0.869441
H  -1.392307   0.849537  -0.877183
H  -0.052925  -1.327908   0.913833
H   0.734620  -0.116559  -0.070112
H  -0.175713  -1.361321  -0.858767
