butane_opt
 OpenBabel08242015403D

 14 13  0  0  0  0  0  0  0  0999 V2000
   -3.9304    0.2576    0.0093 C   0  0  0  0  0  0  0  0  0  0  0  0
   -2.6882   -0.6175    0.0589 C   0  0  0  0  0  0  0  0  0  0  0  0
   -4.8509   -0.3558    0.0602 H   0  0  0  0  0  0  0  0  0  0  0  0
   -3.9573    0.9338   -0.9443 H   0  0  0  0  0  0  0  0  0  0  0  0
   -3.9662    0.8978    0.8305 H   0  0  0  0  0  0  0  0  0  0  0  0
   -1.4135    0.1963    0.0161 C   0  0  0  0  0  0  0  0  0  0  0  0
   -2.7533   -1.2748   -0.7737 H   0  0  0  0  0  0  0  0  0  0  0  0
   -2.7119   -1.2370    0.9654 H   0  0  0  0  0  0  0  0  0  0  0  0
   -0.1649   -0.6975    0.0170 C   0  0  0  0  0  0  0  0  0  0  0  0
   -1.3903    0.8662    0.8567 H   0  0  0  0  0  0  0  0  0  0  0  0
   -1.4482    0.8402   -0.8806 H   0  0  0  0  0  0  0  0  0  0  0  0
   -0.2503   -1.2098    0.8414 H   0  0  0  0  0  0  0  0  0  0  0  0
    0.7421   -0.1157    0.1366 H   0  0  0  0  0  0  0  0  0  0  0  0
   -0.0647   -1.4899   -0.8889 H   0  0  0  0  0  0  0  0  0  0  0  0
  1  2  1  0  0  0  0
  1  3  1  0  0  0  0
  1  5  1  0  0  0  0
  2  8  1  0  0  0  0
  4  1  1  0  0  0  0
  6  9  1  0  0  0  0
  6  2  1  0  0  0  0
  6 10  1  0  0  0  0
  7  2  1  0  0  0  0
  9 13  1  0  0  0  0
  9 12  1  0  0  0  0
 11  6  1  0  0  0  0
 14  9  1  0  0  0  0
M  END
$$$$
