14
butane_opt
C  -3.946225   0.253534   0.054190
C  -2.715851  -0.609247  -0.000921
H  -4.829378  -0.324524   0.110942
H  -4.030162   0.915776  -0.861761
H  -3.881459   0.928492   0.924079
C  -1.406521   0.191703  -0.031487
H  -2.778514  -1.323106  -0.876131
H  -2.696967  -1.186786   0.857459
C  -0.149051  -0.701829   0.066387
H  -1.424545   0.903696   0.839031
H  -1.313049   0.837119  -0.911238
H  -0.137047  -1.362120   0.998457
H   0.760543  -0.124709   0.049368
H  -0.080880  -1.345226  -0.755573
