14
butane_opt
C  -3.940702   0.276424   0.043481
C  -2.685172  -0.632679   0.024011
H  -4.879324  -0.322480  -0.090258
H  -3.930281   0.770684  -0.783533
H  -4.017210   1.040158   0.965522
C  -1.396284   0.178074  -0.013383
H  -2.711349  -1.341464  -0.867606
H  -2.649675  -1.198478   0.884713
C  -0.178854  -0.685494   0.057058
H  -1.378938   0.804602   0.786384
H  -1.428620   0.853983  -0.954866
H  -0.188996  -1.367063   0.984459
H   0.726481  -0.090879  -0.051214
H  -0.149974  -1.262499  -0.748236
