butane_opt
 OpenBabel08242015403D

 14 13  0  0  0  0  0  0  0  0999 V2000
   -3.9344    0.2488    0.0321 C   0  0  0  0  0  0  0  0  0  0  0  0
   -2.7084   -0.5931    0.0161 C   0  0  0  0  0  0  0  0  0  0  0  0
   -4.8254   -0.3464    0.0382 H   0  0  0  0  0  0  0  0  0  0  0  0
   -3.9222    0.8141   -0.8632 H   0  0  0  0  0  0  0  0  0  0  0  0
   -3.9485    0.9679    0.9216 H   0  0  0  0  0  0  0  0  0  0  0  0
   -1.4088    0.1921    0.0090 C   0  0  0  0  0  0  0  0  0  0  0  0
   -2.7269   -1.3167   -0.8700 H   0  0  0  0  0  0  0  0  0  0  0  0
   -2.6894   -1.1868    0.9029 H   0  0  0  0  0  0  0  0  0  0  0  0
   -0.1604   -0.7086    0.0422 C   0  0  0  0  0  0  0  0  0  0  0  0
   -1.3878    0.8622    0.8537 H   0  0  0  0  0  0  0  0  0  0  0  0
   -1.4283    0.8574   -0.9122 H   0  0  0  0  0  0  0  0  0  0  0  0
   -0.1229   -1.4158    0.9917 H   0  0  0  0  0  0  0  0  0  0  0  0
    0.7480   -0.1142   -0.0665 H   0  0  0  0  0  0  0  0  0  0  0  0
   -0.1684   -1.2612   -0.7280 H   0  0  0  0  0  0  0  0  0  0  0  0
  1  3  1  0  0  0  0
  1  5  1  0  0  0  0
  2  1  1  0  0  0  0
  2  8  1  0  0  0  0
  4  1  1  0  0  0  0
  6  2  1  0  0  0  0
  6  9  1  0  0  0  0
  6 10  1  0  0  0  0
  7  2  1  0  0  0  0
  9 12  1  0  0  0  0
 11  6  1  0  0  0  0
 13  9  1  0  0  0  0
 14  9  1  0  0  0  0
M  END
$$$$
