14
butane_opt
C  -3.933213   0.255616  -0.002423
C  -2.701365  -0.609128   0.063052
H  -4.858933  -0.344810  -0.036096
H  -3.922962   0.894092  -0.941826
H  -3.974013   0.909909   0.822488
C  -1.408175   0.200156   0.045533
H  -2.709467  -1.255688  -0.741606
H  -2.716984  -1.246516   0.949372
C  -0.164979  -0.706333   0.011732
H  -1.348094   0.861163   0.886959
H  -1.390789   0.840386  -0.863350
H  -0.081342  -1.288086   0.873832
H   0.711929  -0.120759  -0.038726
H  -0.229987  -1.413659  -0.892629
