butane_opt
 OpenBabel08242015403D

 14 13  0  0  0  0  0  0  0  0999 V2000
   -3.9526    0.2740    0.0381 C   0  0  0  0  0  0  0  0  0  0  0  0
   -2.7002   -0.6363    0.0279 C   0  0  0  0  0  0  0  0  0  0  0  0
   -4.8385   -0.3007   -0.0600 H   0  0  0  0  0  0  0  0  0  0  0  0
   -3.9482    0.7765   -0.7698 H   0  0  0  0  0  0  0  0  0  0  0  0
   -4.0537    1.1042    1.0150 H   0  0  0  0  0  0  0  0  0  0  0  0
   -1.3980    0.1738   -0.0241 C   0  0  0  0  0  0  0  0  0  0  0  0
   -2.7422   -1.3379   -0.8700 H   0  0  0  0  0  0  0  0  0  0  0  0
   -2.6860   -1.2243    0.8856 H   0  0  0  0  0  0  0  0  0  0  0  0
   -0.1489   -0.6777    0.0613 C   0  0  0  0  0  0  0  0  0  0  0  0
   -1.4620    0.7968    0.7867 H   0  0  0  0  0  0  0  0  0  0  0  0
   -1.3635    0.8474   -0.9564 H   0  0  0  0  0  0  0  0  0  0  0  0
   -0.1353   -1.3496    0.9925 H   0  0  0  0  0  0  0  0  0  0  0  0
    0.7703   -0.1074   -0.0312 H   0  0  0  0  0  0  0  0  0  0  0  0
   -0.1712   -1.2790   -0.7682 H   0  0  0  0  0  0  0  0  0  0  0  0
  1  5  1  0  0  0  0
  2  1  1  0  0  0  0
  2  8  1  0  0  0  0
  3  1  1  0  0  0  0
  4  1  1  0  0  0  0
  6  2  1  0  0  0  0
  6  9  1  0  0  0  0
  6 10  1  0  0  0  0
  7  2  1  0  0  0  0
  9 12  1  0  0  0  0
 11  6  1  0  0  0  0
 13  9  1  0  0  0  0
 14  9  1  0  0  0  0
M  END
$$$$
