14
butane_opt
C  -3.953166   0.283496   0.023382
C  -2.704286  -0.636732   0.023295
H  -4.857590  -0.301471   0.028164
H  -4.007655   0.854605  -0.847996
H  -4.000775   0.979908   0.892378
C  -1.398692   0.173494   0.016550
H  -2.742325  -1.319978  -0.847675
H  -2.698607  -1.239747   0.877075
C  -0.150936  -0.686325   0.028791
H  -1.343783   0.880201   0.868815
H  -1.370303   0.766534  -0.840299
H  -0.116297  -1.446118   1.053475
H   0.784821  -0.046874  -0.088235
H  -0.191867  -1.201224  -0.738926
