butane_opt
 OpenBabel08242015403D

 14 13  0  0  0  0  0  0  0  0999 V2000
   -3.9403    0.2784   -0.0149 C   0  0  0  0  0  0  0  0  0  0  0  0
   -2.6966   -0.6316    0.0751 C   0  0  0  0  0  0  0  0  0  0  0  0
   -4.8259   -0.3010    0.0800 H   0  0  0  0  0  0  0  0  0  0  0  0
   -4.0156    0.9103   -0.9431 H   0  0  0  0  0  0  0  0  0  0  0  0
   -3.9476    0.8843    0.8245 H   0  0  0  0  0  0  0  0  0  0  0  0
   -1.3922    0.1750    0.0289 C   0  0  0  0  0  0  0  0  0  0  0  0
   -2.6836   -1.2418   -0.7408 H   0  0  0  0  0  0  0  0  0  0  0  0
   -2.7468   -1.3038    1.0217 H   0  0  0  0  0  0  0  0  0  0  0  0
   -0.1750   -0.6911    0.0071 C   0  0  0  0  0  0  0  0  0  0  0  0
   -1.4087    0.9146    0.9092 H   0  0  0  0  0  0  0  0  0  0  0  0
   -1.4092    0.7952   -0.8717 H   0  0  0  0  0  0  0  0  0  0  0  0
   -0.2118   -1.1576    0.8001 H   0  0  0  0  0  0  0  0  0  0  0  0
    0.7774   -0.0564    0.1146 H   0  0  0  0  0  0  0  0  0  0  0  0
   -0.1086   -1.4809   -0.9301 H   0  0  0  0  0  0  0  0  0  0  0  0
  1  2  1  0  0  0  0
  1  3  1  0  0  0  0
  1  5  1  0  0  0  0
  2  8  1  0  0  0  0
  4  1  1  0  0  0  0
  6  2  1  0  0  0  0
  6 10  1  0  0  0  0
  7  2  1  0  0  0  0
  9  6  1  0  0  0  0
  9 13  1  0  0  0  0
  9 12  1  0  0  0  0
 11  6  1  0  0  0  0
 14  9  1  0  0  0  0
M  END
$$$$
