butane_opt
 OpenBabel08242015403D

 14 13  0  0  0  0  0  0  0  0999 V2000
   -3.9430    0.2830    0.0500 C   0  0  0  0  0  0  0  0  0  0  0  0
   -2.6942   -0.6253    0.0183 C   0  0  0  0  0  0  0  0  0  0  0  0
   -4.8597   -0.3324    0.0915 H   0  0  0  0  0  0  0  0  0  0  0  0
   -3.9750    0.8586   -0.8318 H   0  0  0  0  0  0  0  0  0  0  0  0
   -3.9548    0.9411    0.9251 H   0  0  0  0  0  0  0  0  0  0  0  0
   -1.3974    0.1639   -0.0406 C   0  0  0  0  0  0  0  0  0  0  0  0
   -2.7092   -1.3326   -0.8584 H   0  0  0  0  0  0  0  0  0  0  0  0
   -2.6743   -1.2073    0.8757 H   0  0  0  0  0  0  0  0  0  0  0  0
   -0.1740   -0.6752    0.0643 C   0  0  0  0  0  0  0  0  0  0  0  0
   -1.3920    0.8052    0.8004 H   0  0  0  0  0  0  0  0  0  0  0  0
   -1.3838    0.8097   -0.9480 H   0  0  0  0  0  0  0  0  0  0  0  0
   -0.2542   -1.2839    0.9577 H   0  0  0  0  0  0  0  0  0  0  0  0
    0.7513   -0.0698    0.1656 H   0  0  0  0  0  0  0  0  0  0  0  0
   -0.0777   -1.4155   -0.8406 H   0  0  0  0  0  0  0  0  0  0  0  0
  1  3  1  0  0  0  0
  1  5  1  0  0  0  0
  2  1  1  0  0  0  0
  2  8  1  0  0  0  0
  4  1  1  0  0  0  0
  6  2  1  0  0  0  0
  6  9  1  0  0  0  0
  6 10  1  0  0  0  0
  7  2  1  0  0  0  0
  9 13  1  0  0  0  0
  9 12  1  0  0  0  0
 11  6  1  0  0  0  0
 14  9  1  0  0  0  0
M  END
$$$$
