14
butane_opt
C  -3.939234   0.282068   0.004480
C  -2.695350  -0.632212   0.069116
H  -4.866601  -0.313127   0.024361
H  -3.950902   0.887991  -0.896587
H  -4.005066   0.881284   0.806235
C  -1.401992   0.182203   0.022094
H  -2.686086  -1.327277  -0.772226
H  -2.724118  -1.246004   0.949249
C  -0.172299  -0.686632   0.012147
H  -1.356561   0.828875   0.859729
H  -1.382624   0.817965  -0.884491
H  -0.214001  -1.225206   0.865637
H   0.738804  -0.086396   0.100236
H  -0.076959  -1.436791  -0.918447
