butane_opt
 OpenBabel08242015403D

 14 13  0  0  0  0  0  0  0  0999 V2000
   -3.9484    0.2480    0.0332 C   0  0  0  0  0  0  0  0  0  0  0  0
   -2.7136   -0.6039    0.0298 C   0  0  0  0  0  0  0  0  0  0  0  0
   -4.8590   -0.3386   -0.0197 H   0  0  0  0  0  0  0  0  0  0  0  0
   -3.9231    0.7988   -0.8488 H   0  0  0  0  0  0  0  0  0  0  0  0
   -4.0355    1.0083    0.9465 H   0  0  0  0  0  0  0  0  0  0  0  0
   -1.4067    0.1965   -0.0068 C   0  0  0  0  0  0  0  0  0  0  0  0
   -2.7470   -1.2735   -0.8529 H   0  0  0  0  0  0  0  0  0  0  0  0
   -2.6882   -1.1774    0.8799 H   0  0  0  0  0  0  0  0  0  0  0  0
   -0.1450   -0.7082    0.0498 C   0  0  0  0  0  0  0  0  0  0  0  0
   -1.3832    0.8481    0.8346 H   0  0  0  0  0  0  0  0  0  0  0  0
   -1.4245    0.8559   -0.9139 H   0  0  0  0  0  0  0  0  0  0  0  0
   -0.0634   -1.3758    0.9841 H   0  0  0  0  0  0  0  0  0  0  0  0
    0.7800   -0.0867   -0.0501 H   0  0  0  0  0  0  0  0  0  0  0  0
   -0.1124   -1.3243   -0.7746 H   0  0  0  0  0  0  0  0  0  0  0  0
  1  5  1  0  0  0  0
  2  1  1  0  0  0  0
  2  8  1  0  0  0  0
  3  1  1  0  0  0  0
  4  1  1  0  0  0  0
  6  2  1  0  0  0  0
  6  9  1  0  0  0  0
  6 10  1  0  0  0  0
  7  2  1  0  0  0  0
  9 12  1  0  0  0  0
 11  6  1  0  0  0  0
 13  9  1  0  0  0  0
 14  9  1  0  0  0  0
M  END
$$$$
