14
butane_opt
C  -3.940605   0.268322   0.030993
C  -2.694267  -0.630865   0.030210
H  -4.825825  -0.313240  -0.015856
H  -3.970126   0.827517  -0.830254
H  -3.985959   1.025756   0.922715
C  -1.399342   0.182956   0.002365
H  -2.687515  -1.344513  -0.869247
H  -2.733146  -1.197490   0.887318
C  -0.170005  -0.694770   0.049883
H  -1.422012   0.840471   0.815468
H  -1.423700   0.848788  -0.928847
H  -0.119304  -1.328067   0.964841
H   0.748127  -0.068811  -0.104681
H  -0.156075  -1.267273  -0.747311
