butane_opt
 OpenBabel08242015403D

 14 13  0  0  0  0  0  0  0  0999 V2000
   -3.9600    0.2731    0.0274 C   0  0  0  0  0  0  0  0  0  0  0  0
   -2.6914   -0.6326    0.0459 C   0  0  0  0  0  0  0  0  0  0  0  0
   -4.8343   -0.2744   -0.0005 H   0  0  0  0  0  0  0  0  0  0  0  0
   -4.0267    0.8624   -0.8581 H   0  0  0  0  0  0  0  0  0  0  0  0
   -4.0050    0.9227    0.8687 H   0  0  0  0  0  0  0  0  0  0  0  0
   -1.3983    0.1829   -0.0027 C   0  0  0  0  0  0  0  0  0  0  0  0
   -2.7108   -1.3529   -0.8500 H   0  0  0  0  0  0  0  0  0  0  0  0
   -2.7409   -1.2129    0.9026 H   0  0  0  0  0  0  0  0  0  0  0  0
   -0.1510   -0.6844    0.0393 C   0  0  0  0  0  0  0  0  0  0  0  0
   -1.3674    0.8534    0.8179 H   0  0  0  0  0  0  0  0  0  0  0  0
   -1.3944    0.8344   -0.9081 H   0  0  0  0  0  0  0  0  0  0  0  0
   -0.1735   -1.2919    0.9409 H   0  0  0  0  0  0  0  0  0  0  0  0
    0.7790   -0.1080    0.0474 H   0  0  0  0  0  0  0  0  0  0  0  0
   -0.1419   -1.3711   -0.8384 H   0  0  0  0  0  0  0  0  0  0  0  0
  1  2  1  0  0  0  0
  1  5  1  0  0  0  0
  2  8  1  0  0  0  0
  3  1  1  0  0  0  0
  4  1  1  0  0  0  0
  6  9  1  0  0  0  0
  6  2  1  0  0  0  0
  6 10  1  0  0  0  0
  7  2  1  0  0  0  0
  9 13  1  0  0  0  0
  9 12  1  0  0  0  0
 11  6  1  0  0  0  0
 14  9  1  0  0  0  0
M  END
$$$$
