14
butane_opt
C  -3.945520   0.263122  -0.021409
C  -2.716618  -0.615888   0.081403
H  -4.863871  -0.302495  -0.083608
H  -3.899177   0.813107  -0.886169
H  -4.034015   0.953558   0.854810
C  -1.398181   0.193195   0.041633
H  -2.701140  -1.243325  -0.726551
H  -2.730302  -1.299094   1.050235
C  -0.158406  -0.696268  -0.004447
H  -1.360655   0.928603   0.936518
H  -1.384171   0.782240  -0.826064
H  -0.010796  -1.338400   0.874691
H   0.724543  -0.123443  -0.033370
H  -0.144245  -1.377484  -0.883364
