butane_opt
 OpenBabel08242015403D

 14 13  0  0  0  0  0  0  0  0999 V2000
   -3.9526    0.2758   -0.0025 C   0  0  0  0  0  0  0  0  0  0  0  0
   -2.7019   -0.6237    0.0638 C   0  0  0  0  0  0  0  0  0  0  0  0
   -4.8744   -0.3388    0.0970 H   0  0  0  0  0  0  0  0  0  0  0  0
   -4.0068    1.0014   -0.9596 H   0  0  0  0  0  0  0  0  0  0  0  0
   -3.9758    0.7886    0.7316 H   0  0  0  0  0  0  0  0  0  0  0  0
   -1.4006    0.1786    0.0407 C   0  0  0  0  0  0  0  0  0  0  0  0
   -2.7069   -1.3474   -0.8212 H   0  0  0  0  0  0  0  0  0  0  0  0
   -2.6935   -1.2375    0.9380 H   0  0  0  0  0  0  0  0  0  0  0  0
   -0.1512   -0.6881    0.0108 C   0  0  0  0  0  0  0  0  0  0  0  0
   -1.4010    0.9204    0.9297 H   0  0  0  0  0  0  0  0  0  0  0  0
   -1.3865    0.7897   -0.8097 H   0  0  0  0  0  0  0  0  0  0  0  0
   -0.1175   -1.2779    0.8612 H   0  0  0  0  0  0  0  0  0  0  0  0
    0.7815   -0.0925   -0.0177 H   0  0  0  0  0  0  0  0  0  0  0  0
   -0.1690   -1.3880   -0.8845 H   0  0  0  0  0  0  0  0  0  0  0  0
  1  2  1  0  0  0  0
  1  3  1  0  0  0  0
  1  5  1  0  0  0  0
  2  8  1  0  0  0  0
  4  1  1  0  0  0  0
  6  2  1  0  0  0  0
  6 10  1  0  0  0  0
  7  2  1  0  0  0  0
  9  6  1  0  0  0  0
  9 12  1  0  0  0  0
 11  6  1  0  0  0  0
 13  9  1  0  0  0  0
 14  9  1  0  0  0  0
M  END
$$$$
