14
butane_opt
C  -3.959525   0.260977   0.046771
C  -2.710527  -0.606318   0.029521
H  -4.874825  -0.335345   0.005679
H  -3.944263   0.856729  -0.847069
H  -3.946939   0.944290   0.901593
C  -1.389084   0.192730  -0.028347
H  -2.767494  -1.333705  -0.846843
H  -2.708537  -1.244829   0.904240
C  -0.147039  -0.701238   0.058228
H  -1.425816   0.868646   0.799261
H  -1.386109   0.845820  -0.962840
H  -0.174539  -1.265797   0.911441
H   0.753302  -0.125262   0.117608
H  -0.075812  -1.435446  -0.822581
