14
butane_opt
C  -3.964346   0.270385   0.011839
C  -2.695416  -0.626613   0.059159
H  -4.829885  -0.280411   0.076714
H  -3.956170   0.931923  -0.926642
H  -4.020250   0.896831   0.834196
C  -1.403828   0.174774   0.010172
H  -2.713416  -1.313583  -0.785517
H  -2.703797  -1.266223   0.927300
C  -0.149622  -0.686130   0.023118
H  -1.327207   0.843579   0.871758
H  -1.409697   0.858403  -0.911093
H  -0.213339  -1.196284   0.827091
H   0.796767  -0.069108   0.171837
H  -0.095740  -1.458056  -0.903897
