butane_opt
 OpenBabel08242015403D

 14 13  0  0  0  0  0  0  0  0999 V2000
   -3.9572    0.2831   -0.0077 C   0  0  0  0  0  0  0  0  0  0  0  0
   -2.7014   -0.6283    0.0733 C   0  0  0  0  0  0  0  0  0  0  0  0
   -4.9029   -0.3439    0.0263 H   0  0  0  0  0  0  0  0  0  0  0  0
   -3.9654    0.9136   -0.9468 H   0  0  0  0  0  0  0  0  0  0  0  0
   -4.0240    0.9028    0.8199 H   0  0  0  0  0  0  0  0  0  0  0  0
   -1.3930    0.1761    0.0325 C   0  0  0  0  0  0  0  0  0  0  0  0
   -2.7259   -1.2705   -0.7366 H   0  0  0  0  0  0  0  0  0  0  0  0
   -2.7315   -1.3195    0.9892 H   0  0  0  0  0  0  0  0  0  0  0  0
   -0.1500   -0.6899    0.0002 C   0  0  0  0  0  0  0  0  0  0  0  0
   -1.3283    0.8992    0.9093 H   0  0  0  0  0  0  0  0  0  0  0  0
   -1.4028    0.7632   -0.8513 H   0  0  0  0  0  0  0  0  0  0  0  0
   -0.1883   -1.1945    0.8417 H   0  0  0  0  0  0  0  0  0  0  0  0
    0.7552   -0.1029    0.0845 H   0  0  0  0  0  0  0  0  0  0  0  0
   -0.0900   -1.4120   -0.8884 H   0  0  0  0  0  0  0  0  0  0  0  0
  1  3  1  0  0  0  0
  1  2  1  0  0  0  0
  1  5  1  0  0  0  0
  2  8  1  0  0  0  0
  4  1  1  0  0  0  0
  6  2  1  0  0  0  0
  6 10  1  0  0  0  0
  7  2  1  0  0  0  0
  9  6  1  0  0  0  0
  9 13  1  0  0  0  0
  9 12  1  0  0  0  0
 11  6  1  0  0  0  0
 14  9  1  0  0  0  0
M  END
$$$$
