14
butane_opt
C  -3.945161   0.277744   0.041705
C  -2.696871  -0.628236   0.028355
H  -4.880705  -0.338516  -0.100396
H  -3.937186   0.739380  -0.751121
H  -4.028634   1.087511   0.998176
C  -1.403108   0.169477  -0.031223
H  -2.732573  -1.311073  -0.836094
H  -2.668526  -1.229429   0.901246
C  -0.156230  -0.687568   0.058324
H  -1.433682   0.843012   0.778885
H  -1.386506   0.815274  -0.938716
H  -0.153600  -1.344131   0.995277
H   0.763826  -0.066934   0.008305
H  -0.149786  -1.250390  -0.758891
