14
butane_opt
C  -3.951222   0.268482   0.034128
C  -2.699350  -0.619614   0.032861
H  -4.856862  -0.281792   0.036090
H  -4.039610   0.858054  -0.826053
H  -4.021034   0.978334   0.924139
C  -1.395807   0.174065  -0.022476
H  -2.721773  -1.333043  -0.848737
H  -2.673819  -1.283589   0.928834
C  -0.154628  -0.686766   0.057133
H  -1.432331   0.805112   0.803653
H  -1.332996   0.848787  -0.969412
H  -0.169459  -1.205202   0.889560
H   0.774405  -0.079888   0.134204
H  -0.134435  -1.410510  -0.856849
