14
butane_opt
C  -3.930247   0.257698   0.043981
C  -2.699677  -0.605299   0.006958
H  -4.878646  -0.393972   0.157488
H  -3.990109   0.905644  -0.884794
H  -3.915551   0.913130   0.900857
C  -1.410605   0.200525  -0.012691
H  -2.730238  -1.307332  -0.887413
H  -2.694302  -1.222321   0.866613
C  -0.168487  -0.709706   0.058318
H  -1.344696   0.848252   0.835823
H  -1.390609   0.863767  -0.944646
H  -0.197069  -1.303445   0.959693
H   0.737718  -0.121850   0.085276
H  -0.097690  -1.378376  -0.802524
