14
butane_opt
C  -3.939076   0.251078   0.046177
C  -2.706739  -0.594221   0.026257
H  -4.850795  -0.357924   0.053458
H  -3.965576   0.862985  -0.841242
H  -3.889993   0.942385   0.903853
C  -1.412229   0.184853  -0.028642
H  -2.741936  -1.338388  -0.857515
H  -2.715343  -1.202278   0.889526
C  -0.148575  -0.699037   0.054356
H  -1.452986   0.863617   0.795926
H  -1.419462   0.858504  -0.960105
H  -0.223232  -1.275907   0.938466
H   0.750330  -0.134656   0.145308
H  -0.035473  -1.404786  -0.809480
