14
butane_opt
C  -3.935452   0.259750  -0.007059
C  -2.707983  -0.599858   0.060667
H  -4.820161  -0.335789   0.023854
H  -3.926844   0.852956  -0.906193
H  -3.969259   0.919984   0.846962
C  -1.402334   0.181861   0.032942
H  -2.699670  -1.253544  -0.781643
H  -2.718884  -1.229037   0.937404
C  -0.167066  -0.703635   0.011549
H  -1.342148   0.905005   0.942143
H  -1.468989   0.752527  -0.826013
H  -0.113909  -1.351747   0.916060
H   0.768006  -0.071166  -0.077954
H  -0.180761  -1.309681  -0.801709
