butane_opt
 OpenBabel08242015403D

 14 13  0  0  0  0  0  0  0  0999 V2000
   -3.9611    0.2741    0.0541 C   0  0  0  0  0  0  0  0  0  0  0  0
   -2.6972   -0.6260    0.0126 C   0  0  0  0  0  0  0  0  0  0  0  0
   -4.8746   -0.3140    0.1127 H   0  0  0  0  0  0  0  0  0  0  0  0
   -3.9872    0.8664   -0.8222 H   0  0  0  0  0  0  0  0  0  0  0  0
   -3.9784    0.9640    0.9350 H   0  0  0  0  0  0  0  0  0  0  0  0
   -1.3933    0.1726   -0.0467 C   0  0  0  0  0  0  0  0  0  0  0  0
   -2.7388   -1.3376   -0.8861 H   0  0  0  0  0  0  0  0  0  0  0  0
   -2.6482   -1.2139    0.8769 H   0  0  0  0  0  0  0  0  0  0  0  0
   -0.1606   -0.6799    0.0693 C   0  0  0  0  0  0  0  0  0  0  0  0
   -1.4488    0.8048    0.7757 H   0  0  0  0  0  0  0  0  0  0  0  0
   -1.3409    0.8085   -0.9406 H   0  0  0  0  0  0  0  0  0  0  0  0
   -0.1827   -1.2608    0.9517 H   0  0  0  0  0  0  0  0  0  0  0  0
    0.7438   -0.0644    0.1556 H   0  0  0  0  0  0  0  0  0  0  0  0
   -0.0306   -1.4123   -0.7931 H   0  0  0  0  0  0  0  0  0  0  0  0
  1  3  1  0  0  0  0
  1  5  1  0  0  0  0
  2  1  1  0  0  0  0
  2  8  1  0  0  0  0
  4  1  1  0  0  0  0
  6  2  1  0  0  0  0
  6  9  1  0  0  0  0
  6 10  1  0  0  0  0
  7  2  1  0  0  0  0
  9 13  1  0  0  0  0
  9 12  1  0  0  0  0
 11  6  1  0  0  0  0
 14  9  1  0  0  0  0
M  END
$$$$
