butane_opt
 OpenBabel08242015403D

 14 13  0  0  0  0  0  0  0  0999 V2000
   -3.9471    0.2561    0.0355 C   0  0  0  0  0  0  0  0  0  0  0  0
   -2.7047   -0.6140    0.0161 C   0  0  0  0  0  0  0  0  0  0  0  0
   -4.8420   -0.3102    0.0692 H   0  0  0  0  0  0  0  0  0  0  0  0
   -4.0031    0.8040   -0.8270 H   0  0  0  0  0  0  0  0  0  0  0  0
   -3.9159    1.0221    0.9707 H   0  0  0  0  0  0  0  0  0  0  0  0
   -1.4061    0.1898   -0.0220 C   0  0  0  0  0  0  0  0  0  0  0  0
   -2.7852   -1.2868   -0.8367 H   0  0  0  0  0  0  0  0  0  0  0  0
   -2.7426   -1.2303    0.8888 H   0  0  0  0  0  0  0  0  0  0  0  0
   -0.1498   -0.6949    0.0606 C   0  0  0  0  0  0  0  0  0  0  0  0
   -1.4017    0.8509    0.8272 H   0  0  0  0  0  0  0  0  0  0  0  0
   -1.3756    0.8973   -0.9494 H   0  0  0  0  0  0  0  0  0  0  0  0
   -0.1399   -1.3452    0.9624 H   0  0  0  0  0  0  0  0  0  0  0  0
    0.7520   -0.1347    0.0597 H   0  0  0  0  0  0  0  0  0  0  0  0
   -0.0816   -1.3835   -0.7975 H   0  0  0  0  0  0  0  0  0  0  0  0
  1  3  1  0  0  0  0
  1  5  1  0  0  0  0
  2  1  1  0  0  0  0
  2  8  1  0  0  0  0
  4  1  1  0  0  0  0
  6  2  1  0  0  0  0
  6  9  1  0  0  0  0
  6 10  1  0  0  0  0
  7  2  1  0  0  0  0
  9 12  1  0  0  0  0
 11  6  1  0  0  0  0
 13  9  1  0  0  0  0
 14  9  1  0  0  0  0
M  END
$$$$
