butane_opt
 OpenBabel08242015403D

 14 13  0  0  0  0  0  0  0  0999 V2000
   -3.9342    0.2625   -0.0029 C   0  0  0  0  0  0  0  0  0  0  0  0
   -2.6985   -0.6106    0.0593 C   0  0  0  0  0  0  0  0  0  0  0  0
   -4.8732   -0.3744    0.0189 H   0  0  0  0  0  0  0  0  0  0  0  0
   -3.9119    0.8771   -0.9344 H   0  0  0  0  0  0  0  0  0  0  0  0
   -3.9896    0.8957    0.8238 H   0  0  0  0  0  0  0  0  0  0  0  0
   -1.4074    0.2018    0.0442 C   0  0  0  0  0  0  0  0  0  0  0  0
   -2.7012   -1.3075   -0.7814 H   0  0  0  0  0  0  0  0  0  0  0  0
   -2.7621   -1.2249    0.9305 H   0  0  0  0  0  0  0  0  0  0  0  0
   -0.1622   -0.7066    0.0167 C   0  0  0  0  0  0  0  0  0  0  0  0
   -1.3949    0.8933    0.8950 H   0  0  0  0  0  0  0  0  0  0  0  0
   -1.3793    0.8026   -0.8430 H   0  0  0  0  0  0  0  0  0  0  0  0
   -0.0557   -1.3118    0.8889 H   0  0  0  0  0  0  0  0  0  0  0  0
    0.7054   -0.1481   -0.1376 H   0  0  0  0  0  0  0  0  0  0  0  0
   -0.2240   -1.3412   -0.8288 H   0  0  0  0  0  0  0  0  0  0  0  0
  1  3  1  0  0  0  0
  1  2  1  0  0  0  0
  1  5  1  0  0  0  0
  2  8  1  0  0  0  0
  4  1  1  0  0  0  0
  6  2  1  0  0  0  0
  6 10  1  0  0  0  0
  7  2  1  0  0  0  0
  9  6  1  0  0  0  0
  9 12  1  0  0  0  0
 11  6  1  0  0  0  0
 13  9  1  0  0  0  0
 14  9  1  0  0  0  0
M  END
$$$$
