14
butane_opt
C  -3.950134   0.265327   0.042121
C  -2.702199  -0.626264   0.012743
H  -4.817014  -0.289679  -0.025025
H  -4.009115   0.825844  -0.809927
H  -3.975391   1.017079   0.918567
C  -1.398638   0.196988  -0.010023
H  -2.798300  -1.338784  -0.862353
H  -2.679138  -1.234153   0.868176
C  -0.156900  -0.701504   0.056117
H  -1.381649   0.867063   0.818991
H  -1.364530   0.788360  -0.882596
H  -0.101940  -1.405124   1.022396
H   0.762722  -0.082609  -0.094163
H  -0.166230  -1.225789  -0.713684
