14
butane_opt
C  -3.955692   0.269309   0.003998
C  -2.696405  -0.622227   0.057187
H  -4.852326  -0.293736   0.094657
H  -3.955429   0.917232  -0.919255
H  -3.981978   0.911948   0.840385
C  -1.401766   0.176728   0.017247
H  -2.706356  -1.315896  -0.785583
H  -2.707917  -1.289964   0.988368
C  -0.158080  -0.680082   0.026391
H  -1.419046   0.822500   0.857501
H  -1.357695   0.826293  -0.915660
H  -0.139930  -1.184375   0.814305
H   0.730652  -0.103037   0.124119
H  -0.099810  -1.481606  -0.932157
