butane_opt
 OpenBabel08242015403D

 14 13  0  0  0  0  0  0  0  0999 V2000
   -3.9316    0.2619    0.0478 C   0  0  0  0  0  0  0  0  0  0  0  0
   -2.7067   -0.6052    0.0194 C   0  0  0  0  0  0  0  0  0  0  0  0
   -4.8410   -0.3444    0.0120 H   0  0  0  0  0  0  0  0  0  0  0  0
   -3.9563    0.7825   -0.8150 H   0  0  0  0  0  0  0  0  0  0  0  0
   -3.9464    0.9778    0.9456 H   0  0  0  0  0  0  0  0  0  0  0  0
   -1.4014    0.1950   -0.0259 C   0  0  0  0  0  0  0  0  0  0  0  0
   -2.7377   -1.3275   -0.8625 H   0  0  0  0  0  0  0  0  0  0  0  0
   -2.6821   -1.1963    0.9010 H   0  0  0  0  0  0  0  0  0  0  0  0
   -0.1625   -0.7056    0.0560 C   0  0  0  0  0  0  0  0  0  0  0  0
   -1.4299    0.8089    0.7764 H   0  0  0  0  0  0  0  0  0  0  0  0
   -1.3912    0.8490   -0.9436 H   0  0  0  0  0  0  0  0  0  0  0  0
   -0.2731   -1.3217    0.9642 H   0  0  0  0  0  0  0  0  0  0  0  0
    0.7506   -0.1132    0.0775 H   0  0  0  0  0  0  0  0  0  0  0  0
   -0.0811   -1.3426   -0.7793 H   0  0  0  0  0  0  0  0  0  0  0  0
  1  5  1  0  0  0  0
  2  1  1  0  0  0  0
  2  8  1  0  0  0  0
  3  1  1  0  0  0  0
  4  1  1  0  0  0  0
  6  2  1  0  0  0  0
  6  9  1  0  0  0  0
  6 10  1  0  0  0  0
  7  2  1  0  0  0  0
  9 13  1  0  0  0  0
  9 12  1  0  0  0  0
 11  6  1  0  0  0  0
 14  9  1  0  0  0  0
M  END
$$$$
