14
butane_opt
C  -3.948128   0.256662   0.010534
C  -2.710154  -0.605637   0.062140
H  -4.853984  -0.356280   0.015716
H  -3.910506   0.846085  -0.881589
H  -3.991089   0.912078   0.839463
C  -1.409610   0.199046   0.006064
H  -2.775858  -1.301919  -0.822887
H  -2.682480  -1.245616   0.967392
C  -0.136435  -0.702087   0.029580
H  -1.420826   0.889120   0.855322
H  -1.435484   0.851607  -0.903265
H  -0.158822  -1.252614   0.885334
H   0.759701  -0.129423   0.069303
H  -0.099926  -1.467638  -0.895481
