butane_opt
 OpenBabel08242015403D

 14 13  0  0  0  0  0  0  0  0999 V2000
   -3.9249    0.2549    0.0077 C   0  0  0  0  0  0  0  0  0  0  0  0
   -2.7014   -0.6008    0.0408 C   0  0  0  0  0  0  0  0  0  0  0  0
   -4.8838   -0.3958    0.0306 H   0  0  0  0  0  0  0  0  0  0  0  0
   -3.9705    0.8275   -0.8522 H   0  0  0  0  0  0  0  0  0  0  0  0
   -3.9053    0.9479    0.8842 H   0  0  0  0  0  0  0  0  0  0  0  0
   -1.4235    0.2007    0.0145 C   0  0  0  0  0  0  0  0  0  0  0  0
   -2.6547   -1.2808   -0.7907 H   0  0  0  0  0  0  0  0  0  0  0  0
   -2.7281   -1.2785    0.9432 H   0  0  0  0  0  0  0  0  0  0  0  0
   -0.1656   -0.6991    0.0331 C   0  0  0  0  0  0  0  0  0  0  0  0
   -1.3860    0.9108    0.9013 H   0  0  0  0  0  0  0  0  0  0  0  0
   -1.4093    0.8247   -0.8664 H   0  0  0  0  0  0  0  0  0  0  0  0
   -0.1103   -1.3827    0.9410 H   0  0  0  0  0  0  0  0  0  0  0  0
    0.7380   -0.1299   -0.0673 H   0  0  0  0  0  0  0  0  0  0  0  0
   -0.1254   -1.3877   -0.8327 H   0  0  0  0  0  0  0  0  0  0  0  0
  1  3  1  0  0  0  0
  1  2  1  0  0  0  0
  1  5  1  0  0  0  0
  2  8  1  0  0  0  0
  4  1  1  0  0  0  0
  6  9  1  0  0  0  0
  6  2  1  0  0  0  0
  6 10  1  0  0  0  0
  7  2  1  0  0  0  0
  9 12  1  0  0  0  0
 11  6  1  0  0  0  0
 13  9  1  0  0  0  0
 14  9  1  0  0  0  0
M  END
$$$$
