14
butane_opt
C  -3.927707   0.259818   0.040363
C  -2.706619  -0.612428   0.016957
H  -4.842356  -0.345288  -0.017967
H  -3.926189   0.733471  -0.754636
H  -3.946776   1.059840   1.013061
C  -1.415986   0.198464  -0.029607
H  -2.693042  -1.312412  -0.831362
H  -2.734294  -1.252220   0.919314
C  -0.164155  -0.700193   0.062730
H  -1.422496   0.847697   0.772377
H  -1.385350   0.882783  -0.960009
H  -0.153312  -1.378364   0.999108
H   0.742784  -0.090131   0.035110
H  -0.092412  -1.368913  -0.798146
