14
butane_opt
C  -3.952537   0.264082   0.017149
C  -2.713265  -0.626824   0.039576
H  -4.847703  -0.343749   0.071620
H  -3.976739   0.905536  -0.904671
H  -3.936589   0.968503   0.893982
C  -1.398659   0.200047   0.010239
H  -2.703586  -1.300483  -0.796202
H  -2.712411  -1.257961   0.940722
C  -0.153985  -0.697486   0.031292
H  -1.386997   0.850639   0.846626
H  -1.350789   0.845976  -0.909496
H  -0.159825  -1.276557   0.906423
H   0.732010  -0.130220   0.073288
H  -0.059589  -1.411948  -0.868107
