butane_opt
 OpenBabel08242015403D

 14 13  0  0  0  0  0  0  0  0999 V2000
   -3.9195    0.2585    0.0555 C   0  0  0  0  0  0  0  0  0  0  0  0
   -2.6997   -0.6117    0.0049 C   0  0  0  0  0  0  0  0  0  0  0  0
   -4.8719   -0.3554    0.0677 H   0  0  0  0  0  0  0  0  0  0  0  0
   -3.9869    0.8677   -0.8028 H   0  0  0  0  0  0  0  0  0  0  0  0
   -3.9161    0.9368    0.9377 H   0  0  0  0  0  0  0  0  0  0  0  0
   -1.4145    0.1978   -0.0335 C   0  0  0  0  0  0  0  0  0  0  0  0
   -2.7622   -1.3027   -0.8905 H   0  0  0  0  0  0  0  0  0  0  0  0
   -2.7165   -1.2264    0.9018 H   0  0  0  0  0  0  0  0  0  0  0  0
   -0.1677   -0.7008    0.0709 C   0  0  0  0  0  0  0  0  0  0  0  0
   -1.4299    0.8041    0.7696 H   0  0  0  0  0  0  0  0  0  0  0  0
   -1.4010    0.9080   -0.9800 H   0  0  0  0  0  0  0  0  0  0  0  0
   -0.2200   -1.2739    0.9549 H   0  0  0  0  0  0  0  0  0  0  0  0
    0.7494   -0.1126    0.1405 H   0  0  0  0  0  0  0  0  0  0  0  0
   -0.0497   -1.4535   -0.8402 H   0  0  0  0  0  0  0  0  0  0  0  0
  1  3  1  0  0  0  0
  1  5  1  0  0  0  0
  2  1  1  0  0  0  0
  2  8  1  0  0  0  0
  4  1  1  0  0  0  0
  6  2  1  0  0  0  0
  6  9  1  0  0  0  0
  6 10  1  0  0  0  0
  7  2  1  0  0  0  0
  9 13  1  0  0  0  0
  9 12  1  0  0  0  0
 11  6  1  0  0  0  0
 14  9  1  0  0  0  0
M  END
$$$$
