butane_opt
 OpenBabel08242015403D

 14 13  0  0  0  0  0  0  0  0999 V2000
   -3.9220    0.2588   -0.0169 C   0  0  0  0  0  0  0  0  0  0  0  0
   -2.6987   -0.6053    0.0954 C   0  0  0  0  0  0  0  0  0  0  0  0
   -4.8424   -0.3611   -0.0813 H   0  0  0  0  0  0  0  0  0  0  0  0
   -3.8828    0.8103   -0.8895 H   0  0  0  0  0  0  0  0  0  0  0  0
   -4.0125    0.9404    0.8659 H   0  0  0  0  0  0  0  0  0  0  0  0
   -1.4265    0.2037    0.0337 C   0  0  0  0  0  0  0  0  0  0  0  0
   -2.6924   -1.3225   -0.7814 H   0  0  0  0  0  0  0  0  0  0  0  0
   -2.7552   -1.2615    0.9773 H   0  0  0  0  0  0  0  0  0  0  0  0
   -0.1607   -0.7058   -0.0016 C   0  0  0  0  0  0  0  0  0  0  0  0
   -1.3839    0.8692    0.8893 H   0  0  0  0  0  0  0  0  0  0  0  0
   -1.4230    0.8280   -0.8548 H   0  0  0  0  0  0  0  0  0  0  0  0
   -0.1457   -1.2656    0.8794 H   0  0  0  0  0  0  0  0  0  0  0  0
    0.7435   -0.1236   -0.0271 H   0  0  0  0  0  0  0  0  0  0  0  0
   -0.1307   -1.4014   -0.8682 H   0  0  0  0  0  0  0  0  0  0  0  0
  1  2  1  0  0  0  0
  1  5  1  0  0  0  0
  2  8  1  0  0  0  0
  3  1  1  0  0  0  0
  4  1  1  0  0  0  0
  6  2  1  0  0  0  0
  6 10  1  0  0  0  0
  7  2  1  0  0  0  0
  9  6  1  0  0  0  0
  9 12  1  0  0  0  0
 11  6  1  0  0  0  0
 13  9  1  0  0  0  0
 14  9  1  0  0  0  0
M  END
$$$$
