butane_opt
 OpenBabel08242015403D

 14 13  0  0  0  0  0  0  0  0999 V2000
   -3.9279    0.2626   -0.0088 C   0  0  0  0  0  0  0  0  0  0  0  0
   -2.6982   -0.6140    0.0521 C   0  0  0  0  0  0  0  0  0  0  0  0
   -4.8529   -0.3611    0.1465 H   0  0  0  0  0  0  0  0  0  0  0  0
   -4.0114    1.0091   -0.9783 H   0  0  0  0  0  0  0  0  0  0  0  0
   -3.9097    0.7908    0.7845 H   0  0  0  0  0  0  0  0  0  0  0  0
   -1.4207    0.1895    0.0485 C   0  0  0  0  0  0  0  0  0  0  0  0
   -2.6486   -1.2626   -0.7581 H   0  0  0  0  0  0  0  0  0  0  0  0
   -2.7561   -1.2630    0.9644 H   0  0  0  0  0  0  0  0  0  0  0  0
   -0.1599   -0.7004    0.0010 C   0  0  0  0  0  0  0  0  0  0  0  0
   -1.3802    0.9310    0.9221 H   0  0  0  0  0  0  0  0  0  0  0  0
   -1.4266    0.7541   -0.7928 H   0  0  0  0  0  0  0  0  0  0  0  0
   -0.1511   -1.2476    0.8433 H   0  0  0  0  0  0  0  0  0  0  0  0
    0.7361   -0.0950    0.0227 H   0  0  0  0  0  0  0  0  0  0  0  0
   -0.1348   -1.3791   -0.8452 H   0  0  0  0  0  0  0  0  0  0  0  0
  1  2  1  0  0  0  0
  1  3  1  0  0  0  0
  1  5  1  0  0  0  0
  2  8  1  0  0  0  0
  4  1  1  0  0  0  0
  6  2  1  0  0  0  0
  6 10  1  0  0  0  0
  7  2  1  0  0  0  0
  9 13  1  0  0  0  0
  9  6  1  0  0  0  0
  9 12  1  0  0  0  0
 11  6  1  0  0  0  0
 14  9  1  0  0  0  0
M  END
$$$$
