butane_opt
 OpenBabel08242015403D

 14 13  0  0  0  0  0  0  0  0999 V2000
   -3.9402    0.2695    0.0509 C   0  0  0  0  0  0  0  0  0  0  0  0
   -2.6923   -0.6227    0.0226 C   0  0  0  0  0  0  0  0  0  0  0  0
   -4.8109   -0.2684   -0.0134 H   0  0  0  0  0  0  0  0  0  0  0  0
   -3.9650    0.8286   -0.8138 H   0  0  0  0  0  0  0  0  0  0  0  0
   -4.0183    0.9950    0.9526 H   0  0  0  0  0  0  0  0  0  0  0  0
   -1.4058    0.1733   -0.0321 C   0  0  0  0  0  0  0  0  0  0  0  0
   -2.7342   -1.3185   -0.8543 H   0  0  0  0  0  0  0  0  0  0  0  0
   -2.6762   -1.2215    0.8722 H   0  0  0  0  0  0  0  0  0  0  0  0
   -0.1675   -0.6848    0.0634 C   0  0  0  0  0  0  0  0  0  0  0  0
   -1.3920    0.7823    0.7861 H   0  0  0  0  0  0  0  0  0  0  0  0
   -1.3355    0.8310   -0.9686 H   0  0  0  0  0  0  0  0  0  0  0  0
   -0.2546   -1.2719    0.9730 H   0  0  0  0  0  0  0  0  0  0  0  0
    0.7563   -0.0556    0.0684 H   0  0  0  0  0  0  0  0  0  0  0  0
   -0.1253   -1.3933   -0.8209 H   0  0  0  0  0  0  0  0  0  0  0  0
  1  5  1  0  0  0  0
  2  1  1  0  0  0  0
  2  8  1  0  0  0  0
  3  1  1  0  0  0  0
  4  1  1  0  0  0  0
  6  2  1  0  0  0  0
  6  9  1  0  0  0  0
  6 10  1  0  0  0  0
  7  2  1  0  0  0  0
  9 13  1  0  0  0  0
  9 12  1  0  0  0  0
 11  6  1  0  0  0  0
 14  9  1  0  0  0  0
M  END
$$$$
