butane_opt
 OpenBabel08242015403D

 14 13  0  0  0  0  0  0  0  0999 V2000
   -3.9484    0.2598    0.0418 C   0  0  0  0  0  0  0  0  0  0  0  0
   -2.7126   -0.6192    0.0241 C   0  0  0  0  0  0  0  0  0  0  0  0
   -4.8606   -0.3403   -0.1356 H   0  0  0  0  0  0  0  0  0  0  0  0
   -3.8836    0.7394   -0.7632 H   0  0  0  0  0  0  0  0  0  0  0  0
   -3.9984    1.0752    1.0143 H   0  0  0  0  0  0  0  0  0  0  0  0
   -1.4008    0.2046   -0.0252 C   0  0  0  0  0  0  0  0  0  0  0  0
   -2.8273   -1.2590   -0.8185 H   0  0  0  0  0  0  0  0  0  0  0  0
   -2.6913   -1.2363    0.9285 H   0  0  0  0  0  0  0  0  0  0  0  0
   -0.1431   -0.7056    0.0537 C   0  0  0  0  0  0  0  0  0  0  0  0
   -1.4122    0.8594    0.8007 H   0  0  0  0  0  0  0  0  0  0  0  0
   -1.3941    0.8295   -0.9348 H   0  0  0  0  0  0  0  0  0  0  0  0
   -0.1564   -1.3714    0.9900 H   0  0  0  0  0  0  0  0  0  0  0  0
    0.7361   -0.1623   -0.0174 H   0  0  0  0  0  0  0  0  0  0  0  0
   -0.0729   -1.2869   -0.7443 H   0  0  0  0  0  0  0  0  0  0  0  0
  1  5  1  0  0  0  0
  2  1  1  0  0  0  0
  2  8  1  0  0  0  0
  3  1  1  0  0  0  0
  4  1  1  0  0  0  0
  6  2  1  0  0  0  0
  6  9  1  0  0  0  0
  6 10  1  0  0  0  0
  7  2  1  0  0  0  0
  9 12  1  0  0  0  0
 11  6  1  0  0  0  0
 13  9  1  0  0  0  0
 14  9  1  0  0  0  0
M  END
$$$$
