14
butane_opt
C  -3.939682   0.276520   0.051753
C  -2.696560  -0.629750  -0.002386
H  -4.866428  -0.305020   0.174325
H  -4.032099   0.961805  -0.903168
H  -3.942917   0.874692   0.868016
C  -1.405317   0.171835  -0.011207
H  -2.752450  -1.366233  -0.903585
H  -2.644761  -1.223295   0.858194
C  -0.161866  -0.681009   0.065693
H  -1.419606   0.838332   0.822742
H  -1.405576   0.831918  -0.949617
H  -0.182172  -1.299946   0.973581
H   0.794767  -0.043964   0.061026
H  -0.140158  -1.382241  -0.814259
