14
butane_opt
C  -3.931552   0.251330   0.042898
C  -2.703825  -0.602839   0.010626
H  -4.835528  -0.360381   0.061867
H  -3.982294   0.757198  -0.771764
H  -3.906666   0.993167   0.978865
C  -1.423884   0.197866  -0.037149
H  -2.714858  -1.254631  -0.812176
H  -2.722891  -1.202532   0.915571
C  -0.151286  -0.703552   0.063865
H  -1.430137   0.845254   0.791007
H  -1.353950   0.864810  -0.964481
H  -0.198241  -1.306156   0.944398
H   0.711899  -0.142620   0.122241
H  -0.055597  -1.391241  -0.780913
