14
butane_opt
C  -3.941578   0.279351   0.046107
C  -2.695924  -0.637324   0.025763
H  -4.826418  -0.270923  -0.030739
H  -3.950221   0.787562  -0.805307
H  -4.029424   1.032987   0.949538
C  -1.403025   0.175726  -0.029701
H  -2.754582  -1.366823  -0.854934
H  -2.662038  -1.257730   0.880661
C  -0.166499  -0.681639   0.065154
H  -1.401518   0.819100   0.782332
H  -1.414195   0.848532  -0.963134
H  -0.163425  -1.291463   0.970766
H   0.763871  -0.043281   0.032149
H  -0.116753  -1.354047  -0.797773
