butane_opt
 OpenBabel08242015403D

 14 13  0  0  0  0  0  0  0  0999 V2000
   -3.9385    0.2748    0.0049 C   0  0  0  0  0  0  0  0  0  0  0  0
   -2.6875   -0.6294    0.0615 C   0  0  0  0  0  0  0  0  0  0  0  0
   -4.7911   -0.2764    0.0471 H   0  0  0  0  0  0  0  0  0  0  0  0
   -3.9553    0.9506   -0.9389 H   0  0  0  0  0  0  0  0  0  0  0  0
   -3.9734    0.8904    0.8022 H   0  0  0  0  0  0  0  0  0  0  0  0
   -1.4008    0.1626    0.0135 C   0  0  0  0  0  0  0  0  0  0  0  0
   -2.7489   -1.2282   -0.7588 H   0  0  0  0  0  0  0  0  0  0  0  0
   -2.7202   -1.3128    1.0077 H   0  0  0  0  0  0  0  0  0  0  0  0
   -0.1801   -0.6822    0.0181 C   0  0  0  0  0  0  0  0  0  0  0  0
   -1.3635    0.9042    0.9255 H   0  0  0  0  0  0  0  0  0  0  0  0
   -1.4015    0.7991   -0.8631 H   0  0  0  0  0  0  0  0  0  0  0  0
   -0.2348   -1.1543    0.8149 H   0  0  0  0  0  0  0  0  0  0  0  0
    0.7587   -0.0709    0.1245 H   0  0  0  0  0  0  0  0  0  0  0  0
   -0.1210   -1.4815   -0.9229 H   0  0  0  0  0  0  0  0  0  0  0  0
  1  3  1  0  0  0  0
  1  2  1  0  0  0  0
  1  5  1  0  0  0  0
  2  8  1  0  0  0  0
  4  1  1  0  0  0  0
  6  9  1  0  0  0  0
  6  2  1  0  0  0  0
  6 10  1  0  0  0  0
  7  2  1  0  0  0  0
  9 13  1  0  0  0  0
  9 12  1  0  0  0  0
 11  6  1  0  0  0  0
 14  9  1  0  0  0  0
M  END
$$$$
