butane_opt
 OpenBabel08242015403D

 14 13  0  0  0  0  0  0  0  0999 V2000
   -3.9309    0.2534    0.0530 C   0  0  0  0  0  0  0  0  0  0  0  0
   -2.6991   -0.6022   -0.0205 C   0  0  0  0  0  0  0  0  0  0  0  0
   -4.8643   -0.3971    0.2059 H   0  0  0  0  0  0  0  0  0  0  0  0
   -4.0255    0.9295   -0.8769 H   0  0  0  0  0  0  0  0  0  0  0  0
   -3.8096    0.9010    0.8943 H   0  0  0  0  0  0  0  0  0  0  0  0
   -1.4150    0.1971   -0.0124 C   0  0  0  0  0  0  0  0  0  0  0  0
   -2.7502   -1.2767   -0.8648 H   0  0  0  0  0  0  0  0  0  0  0  0
   -2.7208   -1.2166    0.8415 H   0  0  0  0  0  0  0  0  0  0  0  0
   -0.1632   -0.7002    0.0701 C   0  0  0  0  0  0  0  0  0  0  0  0
   -1.3991    0.8356    0.8168 H   0  0  0  0  0  0  0  0  0  0  0  0
   -1.3918    0.8454   -0.9027 H   0  0  0  0  0  0  0  0  0  0  0  0
   -0.1654   -1.3465    0.9878 H   0  0  0  0  0  0  0  0  0  0  0  0
    0.6969   -0.1647    0.0316 H   0  0  0  0  0  0  0  0  0  0  0  0
   -0.0887   -1.3624   -0.7784 H   0  0  0  0  0  0  0  0  0  0  0  0
  1  3  1  0  0  0  0
  1  5  1  0  0  0  0
  2  6  1  0  0  0  0
  2  1  1  0  0  0  0
  2  8  1  0  0  0  0
  4  1  1  0  0  0  0
  6  9  1  0  0  0  0
  6 10  1  0  0  0  0
  7  2  1  0  0  0  0
  9 12  1  0  0  0  0
 11  6  1  0  0  0  0
 13  9  1  0  0  0  0
 14  9  1  0  0  0  0
M  END
$$$$
