14
butane_opt
C  -3.940900   0.248521   0.033394
C  -2.704970  -0.593396   0.019544
H  -4.868157  -0.354512  -0.011725
H  -3.956130   0.759659  -0.771746
H  -3.883896   1.014283   0.985530
C  -1.406523   0.191501  -0.022663
H  -2.717537  -1.252550  -0.814371
H  -2.668185  -1.208242   0.916243
C  -0.164918  -0.708947   0.055796
H  -1.392016   0.850856   0.807541
H  -1.388112   0.857618  -0.954524
H  -0.138500  -1.348381   0.961681
H   0.718638  -0.108083   0.063961
H  -0.115094  -1.345875  -0.762926
