butane_opt
 OpenBabel08242015403D

 14 13  0  0  0  0  0  0  0  0999 V2000
   -3.9397    0.2835   -0.0055 C   0  0  0  0  0  0  0  0  0  0  0  0
   -2.6961   -0.6248    0.0635 C   0  0  0  0  0  0  0  0  0  0  0  0
   -4.8411   -0.3116    0.0512 H   0  0  0  0  0  0  0  0  0  0  0  0
   -3.9743    0.9273   -0.9494 H   0  0  0  0  0  0  0  0  0  0  0  0
   -3.9660    0.8679    0.8119 H   0  0  0  0  0  0  0  0  0  0  0  0
   -1.3987    0.1568    0.0279 C   0  0  0  0  0  0  0  0  0  0  0  0
   -2.7168   -1.2175   -0.7047 H   0  0  0  0  0  0  0  0  0  0  0  0
   -2.7109   -1.3105    0.9961 H   0  0  0  0  0  0  0  0  0  0  0  0
   -0.1674   -0.6787    0.0056 C   0  0  0  0  0  0  0  0  0  0  0  0
   -1.3820    0.8785    0.9044 H   0  0  0  0  0  0  0  0  0  0  0  0
   -1.3968    0.7611   -0.8333 H   0  0  0  0  0  0  0  0  0  0  0  0
   -0.1922   -1.1725    0.8380 H   0  0  0  0  0  0  0  0  0  0  0  0
    0.7539   -0.0749    0.1296 H   0  0  0  0  0  0  0  0  0  0  0  0
   -0.1810   -1.4606   -0.9224 H   0  0  0  0  0  0  0  0  0  0  0  0
  1  3  1  0  0  0  0
  1  2  1  0  0  0  0
  1  5  1  0  0  0  0
  2  8  1  0  0  0  0
  4  1  1  0  0  0  0
  6  2  1  0  0  0  0
  6 10  1  0  0  0  0
  7  2  1  0  0  0  0
  9  6  1  0  0  0  0
  9 13  1  0  0  0  0
  9 12  1  0  0  0  0
 11  6  1  0  0  0  0
 14  9  1  0  0  0  0
M  END
$$$$
