butane_opt
 OpenBabel08242015403D

 14 13  0  0  0  0  0  0  0  0999 V2000
   -3.9353    0.2778   -0.0181 C   0  0  0  0  0  0  0  0  0  0  0  0
   -2.6994   -0.6296    0.0817 C   0  0  0  0  0  0  0  0  0  0  0  0
   -4.8281   -0.2915   -0.0561 H   0  0  0  0  0  0  0  0  0  0  0  0
   -3.9570    0.8617   -0.8990 H   0  0  0  0  0  0  0  0  0  0  0  0
   -4.0372    0.9680    0.8424 H   0  0  0  0  0  0  0  0  0  0  0  0
   -1.4050    0.1651    0.0496 C   0  0  0  0  0  0  0  0  0  0  0  0
   -2.6782   -1.2879   -0.7416 H   0  0  0  0  0  0  0  0  0  0  0  0
   -2.7536   -1.2594    0.9955 H   0  0  0  0  0  0  0  0  0  0  0  0
   -0.1651   -0.6868   -0.0013 C   0  0  0  0  0  0  0  0  0  0  0  0
   -1.3593    0.8515    0.8955 H   0  0  0  0  0  0  0  0  0  0  0  0
   -1.3751    0.8279   -0.8655 H   0  0  0  0  0  0  0  0  0  0  0  0
   -0.1543   -1.2413    0.8699 H   0  0  0  0  0  0  0  0  0  0  0  0
    0.7618   -0.0668   -0.0479 H   0  0  0  0  0  0  0  0  0  0  0  0
   -0.1864   -1.3544   -0.9015 H   0  0  0  0  0  0  0  0  0  0  0  0
  1  2  1  0  0  0  0
  1  5  1  0  0  0  0
  2  8  1  0  0  0  0
  3  1  1  0  0  0  0
  4  1  1  0  0  0  0
  6  2  1  0  0  0  0
  6 10  1  0  0  0  0
  7  2  1  0  0  0  0
  9  6  1  0  0  0  0
  9 12  1  0  0  0  0
 11  6  1  0  0  0  0
 13  9  1  0  0  0  0
 14  9  1  0  0  0  0
M  END
$$$$
