butane_opt
 OpenBabel08242015403D

 14 13  0  0  0  0  0  0  0  0999 V2000
   -3.9655    0.2748   -0.0087 C   0  0  0  0  0  0  0  0  0  0  0  0
   -2.6972   -0.6292    0.0772 C   0  0  0  0  0  0  0  0  0  0  0  0
   -4.8173   -0.2851   -0.0909 H   0  0  0  0  0  0  0  0  0  0  0  0
   -3.9185    0.8426   -0.8718 H   0  0  0  0  0  0  0  0  0  0  0  0
   -4.0889    0.9561    0.8689 H   0  0  0  0  0  0  0  0  0  0  0  0
   -1.3909    0.1791    0.0276 C   0  0  0  0  0  0  0  0  0  0  0  0
   -2.6671   -1.2801   -0.7381 H   0  0  0  0  0  0  0  0  0  0  0  0
   -2.6837   -1.3083    0.9818 H   0  0  0  0  0  0  0  0  0  0  0  0
   -0.1670   -0.6838    0.0096 C   0  0  0  0  0  0  0  0  0  0  0  0
   -1.3287    0.8614    0.8867 H   0  0  0  0  0  0  0  0  0  0  0  0
   -1.3965    0.7929   -0.8485 H   0  0  0  0  0  0  0  0  0  0  0  0
   -0.0631   -1.2593    0.8793 H   0  0  0  0  0  0  0  0  0  0  0  0
    0.7655   -0.0852    0.0006 H   0  0  0  0  0  0  0  0  0  0  0  0
   -0.1875   -1.3884   -0.8924 H   0  0  0  0  0  0  0  0  0  0  0  0
  1  2  1  0  0  0  0
  1  5  1  0  0  0  0
  2  8  1  0  0  0  0
  3  1  1  0  0  0  0
  4  1  1  0  0  0  0
  6  2  1  0  0  0  0
  6 10  1  0  0  0  0
  7  2  1  0  0  0  0
  9  6  1  0  0  0  0
  9 12  1  0  0  0  0
 11  6  1  0  0  0  0
 13  9  1  0  0  0  0
 14  9  1  0  0  0  0
M  END
$$$$
