14
butane_opt
C  -3.949232   0.257639  -0.011267
C  -2.705835  -0.606214   0.074263
H  -4.889857  -0.371229  -0.029037
H  -3.887521   0.885479  -0.950633
H  -3.994937   0.894299   0.799705
C  -1.402131   0.204873   0.056229
H  -2.679731  -1.284139  -0.769252
H  -2.805588  -1.232517   0.964257
C  -0.151287  -0.710391  -0.007823
H  -1.351107   0.893847   0.949447
H  -1.424901   0.813769  -0.822919
H  -0.027011  -1.354507   0.878829
H   0.733109  -0.140797  -0.072955
H  -0.189653  -1.328111  -0.834561
