butane_opt
 OpenBabel08242015403D

 14 13  0  0  0  0  0  0  0  0999 V2000
   -3.9240    0.2532   -0.0127 C   0  0  0  0  0  0  0  0  0  0  0  0
   -2.7061   -0.6028    0.0813 C   0  0  0  0  0  0  0  0  0  0  0  0
   -4.8453   -0.3277   -0.0784 H   0  0  0  0  0  0  0  0  0  0  0  0
   -3.8634    0.8354   -0.8769 H   0  0  0  0  0  0  0  0  0  0  0  0
   -4.0193    0.9546    0.8708 H   0  0  0  0  0  0  0  0  0  0  0  0
   -1.4102    0.1974    0.0359 C   0  0  0  0  0  0  0  0  0  0  0  0
   -2.7049   -1.2669   -0.7864 H   0  0  0  0  0  0  0  0  0  0  0  0
   -2.7781   -1.2878    1.0212 H   0  0  0  0  0  0  0  0  0  0  0  0
   -0.1670   -0.7048   -0.0046 C   0  0  0  0  0  0  0  0  0  0  0  0
   -1.3863    0.9015    0.9108 H   0  0  0  0  0  0  0  0  0  0  0  0
   -1.4746    0.8076   -0.8370 H   0  0  0  0  0  0  0  0  0  0  0  0
   -0.1211   -1.3275    0.8984 H   0  0  0  0  0  0  0  0  0  0  0  0
    0.7566   -0.1125   -0.0075 H   0  0  0  0  0  0  0  0  0  0  0  0
   -0.1019   -1.3653   -0.8666 H   0  0  0  0  0  0  0  0  0  0  0  0
  1  2  1  0  0  0  0
  1  5  1  0  0  0  0
  2  8  1  0  0  0  0
  3  1  1  0  0  0  0
  4  1  1  0  0  0  0
  6  2  1  0  0  0  0
  6 10  1  0  0  0  0
  7  2  1  0  0  0  0
  9  6  1  0  0  0  0
  9 12  1  0  0  0  0
 11  6  1  0  0  0  0
 13  9  1  0  0  0  0
 14  9  1  0  0  0  0
M  END
$$$$
