14
butane_opt
C  -3.929252   0.257172  -0.004864
C  -2.699568  -0.612142   0.062037
H  -4.869585  -0.350565   0.061758
H  -3.971840   0.925848  -0.936463
H  -3.896638   0.871953   0.815584
C  -1.402786   0.199190   0.037822
H  -2.711997  -1.263034  -0.769284
H  -2.723355  -1.228565   0.973545
C  -0.174603  -0.706657   0.012394
H  -1.393987   0.839985   0.866064
H  -1.433487   0.867441  -0.879655
H  -0.141698  -1.220932   0.805647
H   0.714160  -0.114852   0.090094
H  -0.115058  -1.457545  -0.893879
