14
butane_opt
C  -3.941596   0.271790   0.015783
C  -2.700228  -0.614079   0.042424
H  -4.853679  -0.316145  -0.024609
H  -3.914346   0.803562  -0.820715
H  -4.021047   1.004261   0.930735
C  -1.405819   0.175606   0.002003
H  -2.706630  -1.302428  -0.808709
H  -2.747990  -1.237962   0.942914
C  -0.162356  -0.695421   0.040162
H  -1.385610   0.804137   0.838486
H  -1.374854   0.790888  -0.880541
H  -0.099000  -1.302100   0.927288
H   0.779604  -0.052421  -0.047433
H  -0.185798  -1.310707  -0.807952
