butane_opt
 OpenBabel08242015403D

 14 13  0  0  0  0  0  0  0  0999 V2000
   -3.9409    0.2600    0.0346 C   0  0  0  0  0  0  0  0  0  0  0  0
   -2.6927   -0.6055    0.0317 C   0  0  0  0  0  0  0  0  0  0  0  0
   -4.8874   -0.3740   -0.0922 H   0  0  0  0  0  0  0  0  0  0  0  0
   -3.8852    0.7865   -0.8176 H   0  0  0  0  0  0  0  0  0  0  0  0
   -3.9622    0.9801    0.9340 H   0  0  0  0  0  0  0  0  0  0  0  0
   -1.4085    0.1900   -0.0025 C   0  0  0  0  0  0  0  0  0  0  0  0
   -2.7358   -1.2854   -0.8398 H   0  0  0  0  0  0  0  0  0  0  0  0
   -2.7007   -1.1990    0.8880 H   0  0  0  0  0  0  0  0  0  0  0  0
   -0.1691   -0.7059    0.0433 C   0  0  0  0  0  0  0  0  0  0  0  0
   -1.3924    0.8643    0.8281 H   0  0  0  0  0  0  0  0  0  0  0  0
   -1.4169    0.8510   -0.8916 H   0  0  0  0  0  0  0  0  0  0  0  0
   -0.1134   -1.3807    0.9990 H   0  0  0  0  0  0  0  0  0  0  0  0
    0.7416   -0.1073   -0.0760 H   0  0  0  0  0  0  0  0  0  0  0  0
   -0.1338   -1.2794   -0.7651 H   0  0  0  0  0  0  0  0  0  0  0  0
  1  5  1  0  0  0  0
  2  1  1  0  0  0  0
  2  8  1  0  0  0  0
  3  1  1  0  0  0  0
  4  1  1  0  0  0  0
  6  2  1  0  0  0  0
  6  9  1  0  0  0  0
  6 10  1  0  0  0  0
  7  2  1  0  0  0  0
  9 12  1  0  0  0  0
 11  6  1  0  0  0  0
 13  9  1  0  0  0  0
 14  9  1  0  0  0  0
M  END
$$$$
