butane_opt
 OpenBabel08242015403D

 14 13  0  0  0  0  0  0  0  0999 V2000
   -3.9557    0.2717    0.0268 C   0  0  0  0  0  0  0  0  0  0  0  0
   -2.6870   -0.6292    0.0413 C   0  0  0  0  0  0  0  0  0  0  0  0
   -4.8234   -0.2581   -0.0743 H   0  0  0  0  0  0  0  0  0  0  0  0
   -3.9675    0.7881   -0.8247 H   0  0  0  0  0  0  0  0  0  0  0  0
   -4.0599    1.0388    0.9446 H   0  0  0  0  0  0  0  0  0  0  0  0
   -1.3982    0.1752   -0.0092 C   0  0  0  0  0  0  0  0  0  0  0  0
   -2.7789   -1.3200   -0.8305 H   0  0  0  0  0  0  0  0  0  0  0  0
   -2.6772   -1.3102    0.9346 H   0  0  0  0  0  0  0  0  0  0  0  0
   -0.1588   -0.6762    0.0387 C   0  0  0  0  0  0  0  0  0  0  0  0
   -1.3936    0.8600    0.8458 H   0  0  0  0  0  0  0  0  0  0  0  0
   -1.3792    0.8039   -0.9122 H   0  0  0  0  0  0  0  0  0  0  0  0
   -0.1366   -1.3405    0.9687 H   0  0  0  0  0  0  0  0  0  0  0  0
    0.7528   -0.1108    0.0221 H   0  0  0  0  0  0  0  0  0  0  0  0
   -0.1686   -1.3114   -0.7930 H   0  0  0  0  0  0  0  0  0  0  0  0
  1  2  1  0  0  0  0
  1  5  1  0  0  0  0
  2  8  1  0  0  0  0
  3  1  1  0  0  0  0
  4  1  1  0  0  0  0
  6  9  1  0  0  0  0
  6  2  1  0  0  0  0
  6 10  1  0  0  0  0
  7  2  1  0  0  0  0
  9 12  1  0  0  0  0
 11  6  1  0  0  0  0
 13  9  1  0  0  0  0
 14  9  1  0  0  0  0
M  END
$$$$
