butane_opt
 OpenBabel08242015403D

 14 13  0  0  0  0  0  0  0  0999 V2000
   -3.9339    0.2486    0.0281 C   0  0  0  0  0  0  0  0  0  0  0  0
   -2.7030   -0.5991    0.0312 C   0  0  0  0  0  0  0  0  0  0  0  0
   -4.8767   -0.3451   -0.0563 H   0  0  0  0  0  0  0  0  0  0  0  0
   -3.9067    0.8060   -0.8453 H   0  0  0  0  0  0  0  0  0  0  0  0
   -3.9295    0.9890    0.9439 H   0  0  0  0  0  0  0  0  0  0  0  0
   -1.4047    0.1957   -0.0020 C   0  0  0  0  0  0  0  0  0  0  0  0
   -2.7355   -1.2402   -0.7786 H   0  0  0  0  0  0  0  0  0  0  0  0
   -2.7257   -1.2067    0.9269 H   0  0  0  0  0  0  0  0  0  0  0  0
   -0.1617   -0.7094    0.0360 C   0  0  0  0  0  0  0  0  0  0  0  0
   -1.4016    0.8648    0.8649 H   0  0  0  0  0  0  0  0  0  0  0  0
   -1.4858    0.8446   -0.9216 H   0  0  0  0  0  0  0  0  0  0  0  0
   -0.1737   -1.3594    0.9770 H   0  0  0  0  0  0  0  0  0  0  0  0
    0.7740   -0.0977    0.0127 H   0  0  0  0  0  0  0  0  0  0  0  0
   -0.1243   -1.3602   -0.7943 H   0  0  0  0  0  0  0  0  0  0  0  0
  1  2  1  0  0  0  0
  1  5  1  0  0  0  0
  2  8  1  0  0  0  0
  3  1  1  0  0  0  0
  4  1  1  0  0  0  0
  6  2  1  0  0  0  0
  6  9  1  0  0  0  0
  6 10  1  0  0  0  0
  7  2  1  0  0  0  0
  9 12  1  0  0  0  0
 11  6  1  0  0  0  0
 13  9  1  0  0  0  0
 14  9  1  0  0  0  0
M  END
$$$$
