butane_opt
 OpenBabel08242015403D

 14 13  0  0  0  0  0  0  0  0999 V2000
   -3.9384    0.2772    0.0020 C   0  0  0  0  0  0  0  0  0  0  0  0
   -2.7017   -0.6321    0.0722 C   0  0  0  0  0  0  0  0  0  0  0  0
   -4.8315   -0.3010    0.0450 H   0  0  0  0  0  0  0  0  0  0  0  0
   -3.9214    0.9656   -0.9626 H   0  0  0  0  0  0  0  0  0  0  0  0
   -3.9947    0.8608    0.7987 H   0  0  0  0  0  0  0  0  0  0  0  0
   -1.3999    0.1715    0.0243 C   0  0  0  0  0  0  0  0  0  0  0  0
   -2.6858   -1.2936   -0.7783 H   0  0  0  0  0  0  0  0  0  0  0  0
   -2.7187   -1.2566    0.9753 H   0  0  0  0  0  0  0  0  0  0  0  0
   -0.1738   -0.6874    0.0104 C   0  0  0  0  0  0  0  0  0  0  0  0
   -1.3877    0.8747    0.9060 H   0  0  0  0  0  0  0  0  0  0  0  0
   -1.4038    0.8428   -0.8766 H   0  0  0  0  0  0  0  0  0  0  0  0
   -0.1966   -1.1538    0.8257 H   0  0  0  0  0  0  0  0  0  0  0  0
    0.7833   -0.0747    0.1031 H   0  0  0  0  0  0  0  0  0  0  0  0
   -0.1101   -1.4832   -0.9286 H   0  0  0  0  0  0  0  0  0  0  0  0
  1  3  1  0  0  0  0
  1  2  1  0  0  0  0
  1  5  1  0  0  0  0
  2  8  1  0  0  0  0
  4  1  1  0  0  0  0
  6  2  1  0  0  0  0
  6 10  1  0  0  0  0
  7  2  1  0  0  0  0
  9  6  1  0  0  0  0
  9 13  1  0  0  0  0
  9 12  1  0  0  0  0
 11  6  1  0  0  0  0
 14  9  1  0  0  0  0
M  END
$$$$
