butane_opt
 OpenBabel08242015403D

 14 13  0  0  0  0  0  0  0  0999 V2000
   -3.9251    0.2549   -0.0084 C   0  0  0  0  0  0  0  0  0  0  0  0
   -2.7082   -0.5933    0.0545 C   0  0  0  0  0  0  0  0  0  0  0  0
   -4.8753   -0.3838    0.1957 H   0  0  0  0  0  0  0  0  0  0  0  0
   -4.0092    1.0184   -1.0113 H   0  0  0  0  0  0  0  0  0  0  0  0
   -3.9101    0.7823    0.7511 H   0  0  0  0  0  0  0  0  0  0  0  0
   -1.4088    0.1903    0.0478 C   0  0  0  0  0  0  0  0  0  0  0  0
   -2.7060   -1.2695   -0.7996 H   0  0  0  0  0  0  0  0  0  0  0  0
   -2.7858   -1.2286    0.9506 H   0  0  0  0  0  0  0  0  0  0  0  0
   -0.1552   -0.7025    0.0100 C   0  0  0  0  0  0  0  0  0  0  0  0
   -1.4315    0.8832    0.9089 H   0  0  0  0  0  0  0  0  0  0  0  0
   -1.4144    0.7702   -0.7828 H   0  0  0  0  0  0  0  0  0  0  0  0
   -0.0777   -1.2725    0.8423 H   0  0  0  0  0  0  0  0  0  0  0  0
    0.7604   -0.1128    0.0239 H   0  0  0  0  0  0  0  0  0  0  0  0
   -0.1984   -1.4498   -0.9025 H   0  0  0  0  0  0  0  0  0  0  0  0
  1  2  1  0  0  0  0
  1  3  1  0  0  0  0
  1  5  1  0  0  0  0
  2  8  1  0  0  0  0
  4  1  1  0  0  0  0
  6  2  1  0  0  0  0
  6 10  1  0  0  0  0
  7  2  1  0  0  0  0
  9 13  1  0  0  0  0
  9  6  1  0  0  0  0
  9 12  1  0  0  0  0
 11  6  1  0  0  0  0
 14  9  1  0  0  0  0
M  END
$$$$
