butane_opt
 OpenBabel08242015403D

 14 13  0  0  0  0  0  0  0  0999 V2000
   -3.9281    0.2618    0.0185 C   0  0  0  0  0  0  0  0  0  0  0  0
   -2.6951   -0.6099    0.0504 C   0  0  0  0  0  0  0  0  0  0  0  0
   -4.8477   -0.3471   -0.0812 H   0  0  0  0  0  0  0  0  0  0  0  0
   -3.9055    0.7648   -0.7994 H   0  0  0  0  0  0  0  0  0  0  0  0
   -4.0179    1.0289    0.9567 H   0  0  0  0  0  0  0  0  0  0  0  0
   -1.4198    0.1816   -0.0059 C   0  0  0  0  0  0  0  0  0  0  0  0
   -2.6932   -1.2571   -0.8013 H   0  0  0  0  0  0  0  0  0  0  0  0
   -2.7567   -1.2254    0.9350 H   0  0  0  0  0  0  0  0  0  0  0  0
   -0.1647   -0.6924    0.0433 C   0  0  0  0  0  0  0  0  0  0  0  0
   -1.4152    0.8189    0.8186 H   0  0  0  0  0  0  0  0  0  0  0  0
   -1.3927    0.8387   -0.9163 H   0  0  0  0  0  0  0  0  0  0  0  0
   -0.1221   -1.3117    0.9359 H   0  0  0  0  0  0  0  0  0  0  0  0
    0.7830   -0.0965   -0.0210 H   0  0  0  0  0  0  0  0  0  0  0  0
   -0.1632   -1.3800   -0.8491 H   0  0  0  0  0  0  0  0  0  0  0  0
  1  2  1  0  0  0  0
  1  5  1  0  0  0  0
  2  8  1  0  0  0  0
  3  1  1  0  0  0  0
  4  1  1  0  0  0  0
  6  9  1  0  0  0  0
  6  2  1  0  0  0  0
  6 10  1  0  0  0  0
  7  2  1  0  0  0  0
  9 12  1  0  0  0  0
 11  6  1  0  0  0  0
 13  9  1  0  0  0  0
 14  9  1  0  0  0  0
M  END
$$$$
