butane_opt
 OpenBabel08242015403D

 14 13  0  0  0  0  0  0  0  0999 V2000
   -3.9352    0.2633    0.0249 C   0  0  0  0  0  0  0  0  0  0  0  0
   -2.6961   -0.6223    0.0301 C   0  0  0  0  0  0  0  0  0  0  0  0
   -4.8228   -0.3220    0.1257 H   0  0  0  0  0  0  0  0  0  0  0  0
   -4.0335    0.9146   -0.8704 H   0  0  0  0  0  0  0  0  0  0  0  0
   -3.9920    0.9647    0.8919 H   0  0  0  0  0  0  0  0  0  0  0  0
   -1.4082    0.1786   -0.0125 C   0  0  0  0  0  0  0  0  0  0  0  0
   -2.7428   -1.3016   -0.8041 H   0  0  0  0  0  0  0  0  0  0  0  0
   -2.6461   -1.2648    0.9229 H   0  0  0  0  0  0  0  0  0  0  0  0
   -0.1659   -0.6877    0.0522 C   0  0  0  0  0  0  0  0  0  0  0  0
   -1.4231    0.8382    0.8187 H   0  0  0  0  0  0  0  0  0  0  0  0
   -1.3594    0.8498   -0.9322 H   0  0  0  0  0  0  0  0  0  0  0  0
   -0.1845   -1.1988    0.8666 H   0  0  0  0  0  0  0  0  0  0  0  0
    0.7705   -0.0920    0.1471 H   0  0  0  0  0  0  0  0  0  0  0  0
   -0.1200   -1.4414   -0.8740 H   0  0  0  0  0  0  0  0  0  0  0  0
  1  2  1  0  0  0  0
  1  3  1  0  0  0  0
  1  5  1  0  0  0  0
  2  8  1  0  0  0  0
  4  1  1  0  0  0  0
  6  2  1  0  0  0  0
  6  9  1  0  0  0  0
  6 10  1  0  0  0  0
  7  2  1  0  0  0  0
  9 13  1  0  0  0  0
  9 12  1  0  0  0  0
 11  6  1  0  0  0  0
 14  9  1  0  0  0  0
M  END
$$$$
