14
butane_opt
C  -3.944079   0.259429   0.050304
C  -2.687213  -0.610396  -0.004124
H  -4.849319  -0.351607   0.154843
H  -3.991376   0.907191  -0.859477
H  -3.869809   0.858988   0.898483
C  -1.410320   0.196687  -0.024252
H  -2.781315  -1.312863  -0.880759
H  -2.623612  -1.207536   0.865692
C  -0.169829  -0.699806   0.062904
H  -1.428922   0.893082   0.809161
H  -1.372465   0.791545  -0.884360
H  -0.174782  -1.342188   0.995294
H   0.730559  -0.128425   0.085996
H  -0.120701  -1.331367  -0.768559
