14
butane_opt
C  -3.944550   0.283802   0.033946
C  -2.692480  -0.625340   0.038809
H  -4.849982  -0.318578  -0.120592
H  -3.942103   0.730993  -0.785201
H  -4.027095   1.024002   0.948788
C  -1.395969   0.171814  -0.008927
H  -2.748913  -1.324177  -0.830606
H  -2.672344  -1.219176   0.901741
C  -0.167562  -0.689078   0.040827
H  -1.384028   0.764635   0.818267
H  -1.399196   0.869725  -0.952529
H  -0.208108  -1.336953   0.978247
H   0.785887  -0.050077   0.018642
H  -0.175561  -1.302086  -0.779282
