14
butane_opt
C  -3.934665   0.272519  -0.007554
C  -2.697163  -0.618346   0.061213
H  -4.858642  -0.362709  -0.051366
H  -3.899378   0.891936  -0.908574
H  -4.017183   0.910748   0.818604
C  -1.413460   0.179164   0.050739
H  -2.691965  -1.260301  -0.770906
H  -2.701207  -1.297489   0.981260
C  -0.170338  -0.695476   0.004491
H  -1.314173   0.942801   0.952124
H  -1.392469   0.783061  -0.817401
H  -0.086773  -1.347621   0.908333
H   0.744391  -0.093002  -0.137701
H  -0.215462  -1.297656  -0.840029
