butane_opt
 OpenBabel08242015403D

 14 13  0  0  0  0  0  0  0  0999 V2000
   -3.9564    0.2657    0.0380 C   0  0  0  0  0  0  0  0  0  0  0  0
   -2.7017   -0.6286    0.0026 C   0  0  0  0  0  0  0  0  0  0  0  0
   -4.8204   -0.2991    0.2287 H   0  0  0  0  0  0  0  0  0  0  0  0
   -4.0813    0.9726   -0.8873 H   0  0  0  0  0  0  0  0  0  0  0  0
   -3.8970    0.9328    0.9033 H   0  0  0  0  0  0  0  0  0  0  0  0
   -1.4049    0.1756   -0.0089 C   0  0  0  0  0  0  0  0  0  0  0  0
   -2.7301   -1.3568   -0.9056 H   0  0  0  0  0  0  0  0  0  0  0  0
   -2.7014   -1.1917    0.8560 H   0  0  0  0  0  0  0  0  0  0  0  0
   -0.1525   -0.6837    0.0626 C   0  0  0  0  0  0  0  0  0  0  0  0
   -1.4047    0.8308    0.8293 H   0  0  0  0  0  0  0  0  0  0  0  0
   -1.3279    0.8443   -0.9241 H   0  0  0  0  0  0  0  0  0  0  0  0
   -0.1593   -1.3134    0.9479 H   0  0  0  0  0  0  0  0  0  0  0  0
    0.7724   -0.0924    0.0471 H   0  0  0  0  0  0  0  0  0  0  0  0
   -0.0921   -1.3372   -0.7893 H   0  0  0  0  0  0  0  0  0  0  0  0
  1  3  1  0  0  0  0
  1  5  1  0  0  0  0
  2  1  1  0  0  0  0
  2  8  1  0  0  0  0
  4  1  1  0  0  0  0
  6  2  1  0  0  0  0
  6  9  1  0  0  0  0
  6 10  1  0  0  0  0
  7  2  1  0  0  0  0
  9 12  1  0  0  0  0
 11  6  1  0  0  0  0
 13  9  1  0  0  0  0
 14  9  1  0  0  0  0
M  END
$$$$
