14
butane_opt
C  -3.944110   0.268233   0.043499
C  -2.702179  -0.614763  -0.005705
H  -4.875357  -0.303449   0.128557
H  -4.011295   0.860874  -0.816487
H  -3.860330   0.952141   0.957859
C  -1.398910   0.182177  -0.019343
H  -2.758899  -1.289757  -0.883510
H  -2.682079  -1.282459   0.907450
C  -0.163651  -0.694318   0.061394
H  -1.415071   0.822348   0.813697
H  -1.367451   0.828209  -0.928870
H  -0.178045  -1.331724   0.979767
H   0.753848  -0.092762   0.098845
H  -0.126232  -1.326640  -0.769761
