butane_opt
 OpenBabel08242015403D

 14 13  0  0  0  0  0  0  0  0999 V2000
   -3.9608    0.2708    0.0490 C   0  0  0  0  0  0  0  0  0  0  0  0
   -2.6991   -0.6204    0.0045 C   0  0  0  0  0  0  0  0  0  0  0  0
   -4.8674   -0.3300    0.0711 H   0  0  0  0  0  0  0  0  0  0  0  0
   -3.9880    0.8703   -0.8635 H   0  0  0  0  0  0  0  0  0  0  0  0
   -3.9374    0.9561    0.9415 H   0  0  0  0  0  0  0  0  0  0  0  0
   -1.3956    0.1917   -0.0046 C   0  0  0  0  0  0  0  0  0  0  0  0
   -2.7404   -1.3760   -0.9220 H   0  0  0  0  0  0  0  0  0  0  0  0
   -2.7037   -1.1829    0.8272 H   0  0  0  0  0  0  0  0  0  0  0  0
   -0.1575   -0.6980    0.0553 C   0  0  0  0  0  0  0  0  0  0  0  0
   -1.3865    0.7986    0.8193 H   0  0  0  0  0  0  0  0  0  0  0  0
   -1.3404    0.8179   -0.9180 H   0  0  0  0  0  0  0  0  0  0  0  0
   -0.1694   -1.4174    1.0338 H   0  0  0  0  0  0  0  0  0  0  0  0
    0.7709   -0.0781   -0.0714 H   0  0  0  0  0  0  0  0  0  0  0  0
   -0.1076   -1.2459   -0.7180 H   0  0  0  0  0  0  0  0  0  0  0  0
  1  3  1  0  0  0  0
  1  5  1  0  0  0  0
  2  1  1  0  0  0  0
  2  8  1  0  0  0  0
  4  1  1  0  0  0  0
  6  2  1  0  0  0  0
  6  9  1  0  0  0  0
  6 10  1  0  0  0  0
  7  2  1  0  0  0  0
  9 12  1  0  0  0  0
 11  6  1  0  0  0  0
 13  9  1  0  0  0  0
 14  9  1  0  0  0  0
M  END
$$$$
