14
butane_opt
C  -3.957134   0.260677  -0.007708
C  -2.701754  -0.612655   0.072023
H  -4.847619  -0.316473   0.080337
H  -3.947987   0.921173  -0.945254
H  -3.975450   0.895982   0.803537
C  -1.396912   0.187500   0.022469
H  -2.714645  -1.282044  -0.756740
H  -2.733952  -1.302936   1.010092
C  -0.148160  -0.699807   0.006743
H  -1.373496   0.924525   0.895994
H  -1.481433   0.794579  -0.836117
H  -0.176861  -1.195549   0.828971
H   0.769640  -0.085048   0.140081
H  -0.096086  -1.453248  -0.911860
