butane_opt
 OpenBabel08242015403D

 14 13  0  0  0  0  0  0  0  0999 V2000
   -3.9492    0.2550    0.0290 C   0  0  0  0  0  0  0  0  0  0  0  0
   -2.7004   -0.6025    0.0229 C   0  0  0  0  0  0  0  0  0  0  0  0
   -4.8730   -0.3473   -0.0488 H   0  0  0  0  0  0  0  0  0  0  0  0
   -3.9218    0.7369   -0.7929 H   0  0  0  0  0  0  0  0  0  0  0  0
   -3.9791    1.0336    0.9581 H   0  0  0  0  0  0  0  0  0  0  0  0
   -1.4132    0.1823   -0.0009 C   0  0  0  0  0  0  0  0  0  0  0  0
   -2.7485   -1.2272   -0.8192 H   0  0  0  0  0  0  0  0  0  0  0  0
   -2.7018   -1.2631    0.9319 H   0  0  0  0  0  0  0  0  0  0  0  0
   -0.1428   -0.6977    0.0453 C   0  0  0  0  0  0  0  0  0  0  0  0
   -1.4263    0.8827    0.8514 H   0  0  0  0  0  0  0  0  0  0  0  0
   -1.3650    0.8638   -0.9315 H   0  0  0  0  0  0  0  0  0  0  0  0
   -0.1067   -1.3876    0.9832 H   0  0  0  0  0  0  0  0  0  0  0  0
    0.7162   -0.1187   -0.0583 H   0  0  0  0  0  0  0  0  0  0  0  0
   -0.1449   -1.3033   -0.7718 H   0  0  0  0  0  0  0  0  0  0  0  0
  1  5  1  0  0  0  0
  2  1  1  0  0  0  0
  2  8  1  0  0  0  0
  3  1  1  0  0  0  0
  4  1  1  0  0  0  0
  6  2  1  0  0  0  0
  6  9  1  0  0  0  0
  6 10  1  0  0  0  0
  7  2  1  0  0  0  0
  9 12  1  0  0  0  0
 11  6  1  0  0  0  0
 13  9  1  0  0  0  0
 14  9  1  0  0  0  0
M  END
$$$$
