14
butane_opt
C  -3.951205   0.250605   0.052068
C  -2.703942  -0.608642   0.007243
H  -4.879841  -0.345319   0.078163
H  -3.930312   0.859959  -0.829988
H  -3.950110   0.971916   0.953645
C  -1.402834   0.205047  -0.040533
H  -2.787786  -1.248719  -0.806023
H  -2.738802  -1.241077   0.901920
C  -0.143548  -0.709359   0.064350
H  -1.444570   0.857587   0.802951
H  -1.370862   0.846705  -0.928027
H  -0.200214  -1.280698   0.920313
H   0.740870  -0.123872   0.161778
H  -0.038943  -1.427126  -0.814086
