butane_opt
 OpenBabel08242015403D

 14 13  0  0  0  0  0  0  0  0999 V2000
   -3.9569    0.2612   -0.0157 C   0  0  0  0  0  0  0  0  0  0  0  0
   -2.7108   -0.6064    0.0717 C   0  0  0  0  0  0  0  0  0  0  0  0
   -4.8472   -0.3305   -0.0188 H   0  0  0  0  0  0  0  0  0  0  0  0
   -3.9276    0.9047   -0.9675 H   0  0  0  0  0  0  0  0  0  0  0  0
   -3.9865    0.8959    0.8267 H   0  0  0  0  0  0  0  0  0  0  0  0
   -1.3933    0.1875    0.0579 C   0  0  0  0  0  0  0  0  0  0  0  0
   -2.6861   -1.2700   -0.7885 H   0  0  0  0  0  0  0  0  0  0  0  0
   -2.8091   -1.2572    0.9847 H   0  0  0  0  0  0  0  0  0  0  0  0
   -0.1485   -0.6959   -0.0099 C   0  0  0  0  0  0  0  0  0  0  0  0
   -1.3379    0.9343    0.9758 H   0  0  0  0  0  0  0  0  0  0  0  0
   -1.4494    0.7543   -0.7784 H   0  0  0  0  0  0  0  0  0  0  0  0
   -0.0792   -1.4126    0.9499 H   0  0  0  0  0  0  0  0  0  0  0  0
    0.7619   -0.0990   -0.1483 H   0  0  0  0  0  0  0  0  0  0  0  0
   -0.1550   -1.3397   -0.8407 H   0  0  0  0  0  0  0  0  0  0  0  0
  1  2  1  0  0  0  0
  1  5  1  0  0  0  0
  2  8  1  0  0  0  0
  3  1  1  0  0  0  0
  4  1  1  0  0  0  0
  6  2  1  0  0  0  0
  6 10  1  0  0  0  0
  7  2  1  0  0  0  0
  9  6  1  0  0  0  0
  9 12  1  0  0  0  0
 11  6  1  0  0  0  0
 13  9  1  0  0  0  0
 14  9  1  0  0  0  0
M  END
$$$$
