butane_opt
 OpenBabel08242015403D

 14 13  0  0  0  0  0  0  0  0999 V2000
   -3.9477    0.2774    0.0064 C   0  0  0  0  0  0  0  0  0  0  0  0
   -2.6823   -0.6281    0.0354 C   0  0  0  0  0  0  0  0  0  0  0  0
   -4.8476   -0.2990    0.0157 H   0  0  0  0  0  0  0  0  0  0  0  0
   -3.9978    0.8626   -0.8421 H   0  0  0  0  0  0  0  0  0  0  0  0
   -3.9897    0.9345    0.8534 H   0  0  0  0  0  0  0  0  0  0  0  0
   -1.4033    0.1724    0.0340 C   0  0  0  0  0  0  0  0  0  0  0  0
   -2.6353   -1.3252   -0.8014 H   0  0  0  0  0  0  0  0  0  0  0  0
   -2.7421   -1.2764    0.9636 H   0  0  0  0  0  0  0  0  0  0  0  0
   -0.1795   -0.6832    0.0169 C   0  0  0  0  0  0  0  0  0  0  0  0
   -1.3329    0.8851    0.9013 H   0  0  0  0  0  0  0  0  0  0  0  0
   -1.3659    0.8099   -0.8467 H   0  0  0  0  0  0  0  0  0  0  0  0
   -0.0912   -1.3903    0.9676 H   0  0  0  0  0  0  0  0  0  0  0  0
    0.7538   -0.0653   -0.0773 H   0  0  0  0  0  0  0  0  0  0  0  0
   -0.2245   -1.2677   -0.7913 H   0  0  0  0  0  0  0  0  0  0  0  0
  1  3  1  0  0  0  0
  1  2  1  0  0  0  0
  1  5  1  0  0  0  0
  2  8  1  0  0  0  0
  4  1  1  0  0  0  0
  6  2  1  0  0  0  0
  6 10  1  0  0  0  0
  7  2  1  0  0  0  0
  9  6  1  0  0  0  0
  9 12  1  0  0  0  0
 11  6  1  0  0  0  0
 13  9  1  0  0  0  0
 14  9  1  0  0  0  0
M  END
$$$$
