14
butane_opt
C  -3.962425   0.275095  -0.002990
C  -2.707748  -0.621190   0.045928
H  -4.845135  -0.309952   0.033170
H  -3.997723   0.824165  -0.860410
H  -3.991224   0.965188   0.871747
C  -1.387323   0.184102   0.038809
H  -2.693872  -1.359680  -0.821801
H  -2.691515  -1.245718   0.924534
C  -0.158774  -0.696007   0.023168
H  -1.340786   0.860074   0.883995
H  -1.394209   0.819059  -0.865652
H  -0.055325  -1.395286   0.962511
H   0.789668  -0.071891  -0.129669
H  -0.213394  -1.249856  -0.799330
