butane_opt
 OpenBabel08242015403D

 14 13  0  0  0  0  0  0  0  0999 V2000
   -3.9458    0.2588   -0.0190 C   0  0  0  0  0  0  0  0  0  0  0  0
   -2.7091   -0.6122    0.0821 C   0  0  0  0  0  0  0  0  0  0  0  0
   -4.8750   -0.3569   -0.0929 H   0  0  0  0  0  0  0  0  0  0  0  0
   -3.9334    0.7918   -0.8829 H   0  0  0  0  0  0  0  0  0  0  0  0
   -3.9892    0.9894    0.9030 H   0  0  0  0  0  0  0  0  0  0  0  0
   -1.4103    0.1992    0.0350 C   0  0  0  0  0  0  0  0  0  0  0  0
   -2.6770   -1.2393   -0.7433 H   0  0  0  0  0  0  0  0  0  0  0  0
   -2.7125   -1.2995    1.0231 H   0  0  0  0  0  0  0  0  0  0  0  0
   -0.1540   -0.6993    0.0034 C   0  0  0  0  0  0  0  0  0  0  0  0
   -1.3436    0.8993    0.8996 H   0  0  0  0  0  0  0  0  0  0  0  0
   -1.4420    0.8147   -0.8624 H   0  0  0  0  0  0  0  0  0  0  0  0
   -0.0621   -1.3212    0.8770 H   0  0  0  0  0  0  0  0  0  0  0  0
    0.7456   -0.1095   -0.0090 H   0  0  0  0  0  0  0  0  0  0  0  0
   -0.1045   -1.4035   -0.8845 H   0  0  0  0  0  0  0  0  0  0  0  0
  1  2  1  0  0  0  0
  1  5  1  0  0  0  0
  2  8  1  0  0  0  0
  3  1  1  0  0  0  0
  4  1  1  0  0  0  0
  6  2  1  0  0  0  0
  6 10  1  0  0  0  0
  7  2  1  0  0  0  0
  9  6  1  0  0  0  0
  9 12  1  0  0  0  0
 11  6  1  0  0  0  0
 13  9  1  0  0  0  0
 14  9  1  0  0  0  0
M  END
$$$$
