butane_opt
 OpenBabel08242015403D

 14 13  0  0  0  0  0  0  0  0999 V2000
   -3.9599    0.2704    0.0315 C   0  0  0  0  0  0  0  0  0  0  0  0
   -2.6969   -0.6366    0.0155 C   0  0  0  0  0  0  0  0  0  0  0  0
   -4.8358   -0.3026    0.0604 H   0  0  0  0  0  0  0  0  0  0  0  0
   -4.0362    0.8729   -0.8487 H   0  0  0  0  0  0  0  0  0  0  0  0
   -3.9585    0.9951    0.9040 H   0  0  0  0  0  0  0  0  0  0  0  0
   -1.3971    0.1866    0.0125 C   0  0  0  0  0  0  0  0  0  0  0  0
   -2.7095   -1.3468   -0.8856 H   0  0  0  0  0  0  0  0  0  0  0  0
   -2.6711   -1.2325    0.8649 H   0  0  0  0  0  0  0  0  0  0  0  0
   -0.1648   -0.6908    0.0431 C   0  0  0  0  0  0  0  0  0  0  0  0
   -1.3555    0.8286    0.8543 H   0  0  0  0  0  0  0  0  0  0  0  0
   -1.3602    0.8859   -0.9389 H   0  0  0  0  0  0  0  0  0  0  0  0
   -0.0815   -1.3937    1.0031 H   0  0  0  0  0  0  0  0  0  0  0  0
    0.7571   -0.0671   -0.0276 H   0  0  0  0  0  0  0  0  0  0  0  0
   -0.1537   -1.2621   -0.7594 H   0  0  0  0  0  0  0  0  0  0  0  0
  1  3  1  0  0  0  0
  1  5  1  0  0  0  0
  2  1  1  0  0  0  0
  2  8  1  0  0  0  0
  4  1  1  0  0  0  0
  6  2  1  0  0  0  0
  6  9  1  0  0  0  0
  6 10  1  0  0  0  0
  7  2  1  0  0  0  0
  9 12  1  0  0  0  0
 11  6  1  0  0  0  0
 13  9  1  0  0  0  0
 14  9  1  0  0  0  0
M  END
$$$$
