14
butane_opt
C  -3.941085   0.275702   0.007216
C  -2.688885  -0.617431   0.045906
H  -4.884270  -0.334868   0.010174
H  -4.002478   0.872291  -0.864385
H  -3.939136   0.944549   0.883226
C  -1.412746   0.165270   0.018576
H  -2.695090  -1.257978  -0.766246
H  -2.684380  -1.328944   0.966602
C  -0.171175  -0.682541   0.022700
H  -1.360136   0.851482   0.870564
H  -1.371914   0.811000  -0.895507
H  -0.170581  -1.277580   0.909187
H   0.769368  -0.042227   0.079592
H  -0.126150  -1.401103  -0.892606
