butane_opt
 OpenBabel08242015403D

 14 13  0  0  0  0  0  0  0  0999 V2000
   -3.9247    0.2575    0.0374 C   0  0  0  0  0  0  0  0  0  0  0  0
   -2.7090   -0.6104    0.0258 C   0  0  0  0  0  0  0  0  0  0  0  0
   -4.8060   -0.3300    0.0878 H   0  0  0  0  0  0  0  0  0  0  0  0
   -3.9812    0.8694   -0.8336 H   0  0  0  0  0  0  0  0  0  0  0  0
   -3.9284    0.9350    0.9107 H   0  0  0  0  0  0  0  0  0  0  0  0
   -1.4150    0.1867   -0.0259 C   0  0  0  0  0  0  0  0  0  0  0  0
   -2.7692   -1.3258   -0.8507 H   0  0  0  0  0  0  0  0  0  0  0  0
   -2.6618   -1.1839    0.9028 H   0  0  0  0  0  0  0  0  0  0  0  0
   -0.1652   -0.7011    0.0530 C   0  0  0  0  0  0  0  0  0  0  0  0
   -1.3899    0.8440    0.8190 H   0  0  0  0  0  0  0  0  0  0  0  0
   -1.4126    0.8763   -0.9648 H   0  0  0  0  0  0  0  0  0  0  0  0
   -0.2030   -1.2583    0.9244 H   0  0  0  0  0  0  0  0  0  0  0  0
    0.7406   -0.0980    0.1772 H   0  0  0  0  0  0  0  0  0  0  0  0
   -0.0470   -1.3972   -0.8189 H   0  0  0  0  0  0  0  0  0  0  0  0
  1  3  1  0  0  0  0
  1  5  1  0  0  0  0
  2  1  1  0  0  0  0
  2  8  1  0  0  0  0
  4  1  1  0  0  0  0
  6  2  1  0  0  0  0
  6  9  1  0  0  0  0
  6 10  1  0  0  0  0
  7  2  1  0  0  0  0
  9 13  1  0  0  0  0
  9 12  1  0  0  0  0
 11  6  1  0  0  0  0
 14  9  1  0  0  0  0
M  END
$$$$
