butane_opt
 OpenBabel08242015403D

 14 13  0  0  0  0  0  0  0  0999 V2000
   -3.9521    0.2686    0.0045 C   0  0  0  0  0  0  0  0  0  0  0  0
   -2.7050   -0.6207    0.0599 C   0  0  0  0  0  0  0  0  0  0  0  0
   -4.8543   -0.3054   -0.0645 H   0  0  0  0  0  0  0  0  0  0  0  0
   -3.9719    0.8817   -0.9184 H   0  0  0  0  0  0  0  0  0  0  0  0
   -4.0188    0.9740    0.8843 H   0  0  0  0  0  0  0  0  0  0  0  0
   -1.3917    0.1766    0.0225 C   0  0  0  0  0  0  0  0  0  0  0  0
   -2.7473   -1.3023   -0.7623 H   0  0  0  0  0  0  0  0  0  0  0  0
   -2.7380   -1.2341    0.9446 H   0  0  0  0  0  0  0  0  0  0  0  0
   -0.1549   -0.6900    0.0141 C   0  0  0  0  0  0  0  0  0  0  0  0
   -1.4024    0.9033    0.9103 H   0  0  0  0  0  0  0  0  0  0  0  0
   -1.3908    0.7409   -0.8229 H   0  0  0  0  0  0  0  0  0  0  0  0
   -0.0792   -1.3497    0.9323 H   0  0  0  0  0  0  0  0  0  0  0  0
    0.7828   -0.0926   -0.0814 H   0  0  0  0  0  0  0  0  0  0  0  0
   -0.1644   -1.2905   -0.7948 H   0  0  0  0  0  0  0  0  0  0  0  0
  1  2  1  0  0  0  0
  1  5  1  0  0  0  0
  2  8  1  0  0  0  0
  3  1  1  0  0  0  0
  4  1  1  0  0  0  0
  6  2  1  0  0  0  0
  6 10  1  0  0  0  0
  7  2  1  0  0  0  0
  9  6  1  0  0  0  0
  9 12  1  0  0  0  0
 11  6  1  0  0  0  0
 13  9  1  0  0  0  0
 14  9  1  0  0  0  0
M  END
$$$$
