14
butane_opt
C  -3.927358   0.261610  -0.010550
C  -2.702749  -0.611807   0.061661
H  -4.894921  -0.391785  -0.010553
H  -3.917911   0.910909  -0.931330
H  -3.976412   0.928559   0.843367
C  -1.415238   0.196734   0.060418
H  -2.666588  -1.308411  -0.800818
H  -2.752964  -1.238620   0.954834
C  -0.166736  -0.701441   0.005654
H  -1.309855   0.884240   0.918124
H  -1.437133   0.819816  -0.860314
H  -0.068090  -1.366975   0.922758
H   0.746549  -0.141604  -0.147363
H  -0.193038  -1.312287  -0.845508
