14
butane_opt
C  -3.946347   0.268331   0.033544
C  -2.684515  -0.626026   0.017653
H  -4.843519  -0.312205  -0.016443
H  -3.956981   0.799114  -0.791227
H  -3.935284   1.021865   0.982597
C  -1.402160   0.177790  -0.013729
H  -2.702352  -1.271352  -0.826296
H  -2.693374  -1.272377   0.925402
C  -0.175623  -0.687453   0.051026
H  -1.393624   0.856488   0.826749
H  -1.419828   0.864933  -0.943743
H  -0.156079  -1.356072   0.981132
H   0.731704  -0.062202   0.046826
H  -0.156595  -1.334493  -0.789713
