14
butane_opt
C  -3.950836   0.249346   0.024519
C  -2.711262  -0.611031   0.053100
H  -4.844141  -0.346874  -0.118154
H  -3.882163   0.824207  -0.858393
H  -4.043725   1.026623   0.926195
C  -1.406388   0.203287   0.005137
H  -2.698012  -1.287045  -0.811161
H  -2.717617  -1.232930   0.920563
C  -0.150189  -0.700011   0.028756
H  -1.377886   0.850932   0.816023
H  -1.407973   0.845450  -0.885463
H  -0.048980  -1.360287   0.934248
H   0.740313  -0.147094  -0.000436
H  -0.115174  -1.346735  -0.803558
