butane_opt
 OpenBabel08242015403D

 14 13  0  0  0  0  0  0  0  0999 V2000
   -3.9598    0.2655   -0.0136 C   0  0  0  0  0  0  0  0  0  0  0  0
   -2.7001   -0.6224    0.0772 C   0  0  0  0  0  0  0  0  0  0  0  0
   -4.8561   -0.3362    0.0675 H   0  0  0  0  0  0  0  0  0  0  0  0
   -3.9796    0.9413   -0.9548 H   0  0  0  0  0  0  0  0  0  0  0  0
   -4.0037    0.9113    0.8379 H   0  0  0  0  0  0  0  0  0  0  0  0
   -1.3936    0.1852    0.0313 C   0  0  0  0  0  0  0  0  0  0  0  0
   -2.7024   -1.2587   -0.7521 H   0  0  0  0  0  0  0  0  0  0  0  0
   -2.7428   -1.2688    0.9717 H   0  0  0  0  0  0  0  0  0  0  0  0
   -0.1421   -0.6934    0.0097 C   0  0  0  0  0  0  0  0  0  0  0  0
   -1.3667    0.8492    0.8555 H   0  0  0  0  0  0  0  0  0  0  0  0
   -1.4639    0.8256   -0.8410 H   0  0  0  0  0  0  0  0  0  0  0  0
   -0.1681   -1.1683    0.8161 H   0  0  0  0  0  0  0  0  0  0  0  0
    0.7663   -0.0871    0.1034 H   0  0  0  0  0  0  0  0  0  0  0  0
   -0.1525   -1.5008   -0.9306 H   0  0  0  0  0  0  0  0  0  0  0  0
  1  3  1  0  0  0  0
  1  2  1  0  0  0  0
  1  5  1  0  0  0  0
  2  8  1  0  0  0  0
  4  1  1  0  0  0  0
  6  2  1  0  0  0  0
  6 10  1  0  0  0  0
  7  2  1  0  0  0  0
  9  6  1  0  0  0  0
  9 13  1  0  0  0  0
  9 12  1  0  0  0  0
 11  6  1  0  0  0  0
 14  9  1  0  0  0  0
M  END
$$$$
