14
butane_opt
C  -3.939992   0.265574   0.033724
C  -2.703350  -0.604123   0.032405
H  -4.824436  -0.315591  -0.086396
H  -3.972580   0.770688  -0.807312
H  -3.973957   1.042212   0.965662
C  -1.397301   0.173255  -0.007594
H  -2.709862  -1.306097  -0.837422
H  -2.702117  -1.278319   0.951221
C  -0.170979  -0.697209   0.042775
H  -1.421913   0.827772   0.784066
H  -1.346039   0.835306  -0.933736
H  -0.166431  -1.318068   0.962103
H   0.774920  -0.071507   0.024401
H  -0.140249  -1.303572  -0.788231
