butane_opt
 OpenBabel08242015403D

 14 13  0  0  0  0  0  0  0  0999 V2000
   -3.9647    0.2757   -0.0134 C   0  0  0  0  0  0  0  0  0  0  0  0
   -2.7085   -0.6228    0.0724 C   0  0  0  0  0  0  0  0  0  0  0  0
   -4.8602   -0.3296   -0.0561 H   0  0  0  0  0  0  0  0  0  0  0  0
   -3.9513    0.8018   -0.8636 H   0  0  0  0  0  0  0  0  0  0  0  0
   -4.0152    1.0011    0.8888 H   0  0  0  0  0  0  0  0  0  0  0  0
   -1.3869    0.1843    0.0310 C   0  0  0  0  0  0  0  0  0  0  0  0
   -2.6446   -1.2698   -0.7444 H   0  0  0  0  0  0  0  0  0  0  0  0
   -2.7260   -1.2995    1.0200 H   0  0  0  0  0  0  0  0  0  0  0  0
   -0.1489   -0.6908    0.0092 C   0  0  0  0  0  0  0  0  0  0  0  0
   -1.3482    0.8629    0.8703 H   0  0  0  0  0  0  0  0  0  0  0  0
   -1.3727    0.7756   -0.8363 H   0  0  0  0  0  0  0  0  0  0  0  0
   -0.1415   -1.3070    0.8721 H   0  0  0  0  0  0  0  0  0  0  0  0
    0.7412   -0.1022   -0.0267 H   0  0  0  0  0  0  0  0  0  0  0  0
   -0.1894   -1.3625   -0.8671 H   0  0  0  0  0  0  0  0  0  0  0  0
  1  2  1  0  0  0  0
  1  5  1  0  0  0  0
  2  8  1  0  0  0  0
  3  1  1  0  0  0  0
  4  1  1  0  0  0  0
  6  2  1  0  0  0  0
  6 10  1  0  0  0  0
  7  2  1  0  0  0  0
  9  6  1  0  0  0  0
  9 12  1  0  0  0  0
 11  6  1  0  0  0  0
 13  9  1  0  0  0  0
 14  9  1  0  0  0  0
M  END
$$$$
