butane_opt
 OpenBabel08242015403D

 14 13  0  0  0  0  0  0  0  0999 V2000
   -3.9307    0.2743    0.0306 C   0  0  0  0  0  0  0  0  0  0  0  0
   -2.6956   -0.6280    0.0096 C   0  0  0  0  0  0  0  0  0  0  0  0
   -4.8041   -0.2876    0.0253 H   0  0  0  0  0  0  0  0  0  0  0  0
   -3.9786    0.8818   -0.8405 H   0  0  0  0  0  0  0  0  0  0  0  0
   -3.9852    0.9688    0.9187 H   0  0  0  0  0  0  0  0  0  0  0  0
   -1.4006    0.1684    0.0183 C   0  0  0  0  0  0  0  0  0  0  0  0
   -2.6919   -1.3414   -0.8649 H   0  0  0  0  0  0  0  0  0  0  0  0
   -2.7346   -1.2285    0.9032 H   0  0  0  0  0  0  0  0  0  0  0  0
   -0.1745   -0.6782    0.0460 C   0  0  0  0  0  0  0  0  0  0  0  0
   -1.4221    0.8320    0.8542 H   0  0  0  0  0  0  0  0  0  0  0  0
   -1.3918    0.8095   -0.8954 H   0  0  0  0  0  0  0  0  0  0  0  0
   -0.1166   -1.4147    1.0436 H   0  0  0  0  0  0  0  0  0  0  0  0
    0.7415   -0.0687   -0.1616 H   0  0  0  0  0  0  0  0  0  0  0  0
   -0.2324   -1.2522   -0.7832 H   0  0  0  0  0  0  0  0  0  0  0  0
  1  5  1  0  0  0  0
  2  6  1  0  0  0  0
  2  1  1  0  0  0  0
  2  8  1  0  0  0  0
  3  1  1  0  0  0  0
  4  1  1  0  0  0  0
  6  9  1  0  0  0  0
  6 10  1  0  0  0  0
  7  2  1  0  0  0  0
  9 12  1  0  0  0  0
 11  6  1  0  0  0  0
 13  9  1  0  0  0  0
 14  9  1  0  0  0  0
M  END
$$$$
