14
butane_opt
C  -3.938446   0.251212   0.049572
C  -2.697221  -0.603845   0.013007
H  -4.859440  -0.364602  -0.034323
H  -3.934870   0.799322  -0.788336
H  -3.980788   1.026705   0.973677
C  -1.403823   0.193859  -0.018245
H  -2.757332  -1.317131  -0.872430
H  -2.700994  -1.221333   0.895937
C  -0.168716  -0.700308   0.062898
H  -1.466515   0.842023   0.766866
H  -1.345381   0.910456  -0.975234
H  -0.119550  -1.352495   0.961208
H   0.723654  -0.156487  -0.005335
H  -0.076584  -1.336765  -0.761332
