butane_opt
 OpenBabel08242015403D

 14 13  0  0  0  0  0  0  0  0999 V2000
   -3.9412    0.2579    0.0014 C   0  0  0  0  0  0  0  0  0  0  0  0
   -2.7059   -0.6192    0.0460 C   0  0  0  0  0  0  0  0  0  0  0  0
   -4.8615   -0.3422    0.1457 H   0  0  0  0  0  0  0  0  0  0  0  0
   -4.0183    0.9649   -0.9550 H   0  0  0  0  0  0  0  0  0  0  0  0
   -3.9388    0.8395    0.7977 H   0  0  0  0  0  0  0  0  0  0  0  0
   -1.4143    0.2032    0.0372 C   0  0  0  0  0  0  0  0  0  0  0  0
   -2.7362   -1.2932   -0.8100 H   0  0  0  0  0  0  0  0  0  0  0  0
   -2.7499   -1.2406    0.9344 H   0  0  0  0  0  0  0  0  0  0  0  0
   -0.1426   -0.7044    0.0251 C   0  0  0  0  0  0  0  0  0  0  0  0
   -1.4224    0.9092    0.8806 H   0  0  0  0  0  0  0  0  0  0  0  0
   -1.3785    0.8182   -0.8509 H   0  0  0  0  0  0  0  0  0  0  0  0
   -0.0722   -1.2439    0.8709 H   0  0  0  0  0  0  0  0  0  0  0  0
    0.7376   -0.1437   -0.0260 H   0  0  0  0  0  0  0  0  0  0  0  0
   -0.1296   -1.3961   -0.8809 H   0  0  0  0  0  0  0  0  0  0  0  0
  1  2  1  0  0  0  0
  1  3  1  0  0  0  0
  1  5  1  0  0  0  0
  2  8  1  0  0  0  0
  4  1  1  0  0  0  0
  6  2  1  0  0  0  0
  6 10  1  0  0  0  0
  7  2  1  0  0  0  0
  9  6  1  0  0  0  0
  9 12  1  0  0  0  0
 11  6  1  0  0  0  0
 13  9  1  0  0  0  0
 14  9  1  0  0  0  0
M  END
$$$$
