14
butane_opt
C  -3.956017   0.268418   0.046353
C  -2.698120  -0.625777   0.005050
H  -4.848461  -0.285163   0.105202
H  -4.039346   0.855851  -0.814468
H  -3.890804   1.016285   0.962094
C  -1.405586   0.181355  -0.037952
H  -2.742528  -1.294681  -0.861557
H  -2.687742  -1.294198   0.913502
C  -0.151478  -0.687641   0.073300
H  -1.390072   0.810708   0.791758
H  -1.373137   0.817984  -0.954236
H  -0.240246  -1.256394   0.939967
H   0.788322  -0.047367   0.118792
H  -0.072872  -1.421621  -0.804503
