14
butane_opt
C  -3.929132   0.254293  -0.006983
C  -2.700953  -0.608758   0.065841
H  -4.825945  -0.314974   0.067299
H  -3.941999   0.913661  -0.953574
H  -3.933466   0.880365   0.823118
C  -1.414502   0.192460   0.026399
H  -2.730830  -1.234575  -0.731573
H  -2.674986  -1.300327   0.984661
C  -0.169958  -0.701912   0.014736
H  -1.399229   0.926385   0.912874
H  -1.414894   0.809653  -0.874014
H  -0.165243  -1.180797   0.822206
H   0.762045  -0.120773   0.082286
H  -0.125408  -1.481591  -0.916604
