butane_opt
 OpenBabel08242015413D

 14 13  0  0  0  0  0  0  0  0999 V2000
   -3.9320    0.2755    0.0106 C   0  0  0  0  0  0  0  0  0  0  0  0
   -2.6988   -0.6210    0.0479 C   0  0  0  0  0  0  0  0  0  0  0  0
   -4.8721   -0.3494    0.1019 H   0  0  0  0  0  0  0  0  0  0  0  0
   -3.9865    0.9643   -0.9150 H   0  0  0  0  0  0  0  0  0  0  0  0
   -3.9358    0.8868    0.8538 H   0  0  0  0  0  0  0  0  0  0  0  0
   -1.4027    0.1716    0.0115 C   0  0  0  0  0  0  0  0  0  0  0  0
   -2.7374   -1.3241   -0.8207 H   0  0  0  0  0  0  0  0  0  0  0  0
   -2.6997   -1.2486    0.9427 H   0  0  0  0  0  0  0  0  0  0  0  0
   -0.1675   -0.6879    0.0235 C   0  0  0  0  0  0  0  0  0  0  0  0
   -1.3699    0.8728    0.8615 H   0  0  0  0  0  0  0  0  0  0  0  0
   -1.4512    0.8151   -0.8857 H   0  0  0  0  0  0  0  0  0  0  0  0
   -0.2049   -1.2592    0.8776 H   0  0  0  0  0  0  0  0  0  0  0  0
    0.7855   -0.0592    0.1437 H   0  0  0  0  0  0  0  0  0  0  0  0
   -0.1419   -1.4242   -0.8487 H   0  0  0  0  0  0  0  0  0  0  0  0
  1  2  1  0  0  0  0
  1  3  1  0  0  0  0
  1  5  1  0  0  0  0
  2  8  1  0  0  0  0
  4  1  1  0  0  0  0
  6  9  1  0  0  0  0
  6  2  1  0  0  0  0
  6 10  1  0  0  0  0
  7  2  1  0  0  0  0
  9 13  1  0  0  0  0
  9 12  1  0  0  0  0
 11  6  1  0  0  0  0
 14  9  1  0  0  0  0
M  END
$$$$
