14
butane_opt
C  -3.940323   0.259705  -0.009219
C  -2.707469  -0.615171   0.071964
H  -4.864576  -0.317041  -0.055256
H  -3.918128   0.844393  -0.880554
H  -3.982282   0.947183   0.862796
C  -1.410808   0.195520   0.035165
H  -2.660532  -1.238499  -0.739691
H  -2.794769  -1.294578   1.011664
C  -0.161659  -0.703534   0.006440
H  -1.344006   0.889326   0.886862
H  -1.378947   0.850630  -0.853709
H  -0.096104  -1.264360   0.854468
H   0.751584  -0.123149   0.001083
H  -0.093954  -1.412374  -0.902229
