butane_opt
 OpenBabel08242015403D

 14 13  0  0  0  0  0  0  0  0999 V2000
   -3.9437    0.2552    0.0446 C   0  0  0  0  0  0  0  0  0  0  0  0
   -2.7036   -0.6041    0.0082 C   0  0  0  0  0  0  0  0  0  0  0  0
   -4.8544   -0.3724    0.0935 H   0  0  0  0  0  0  0  0  0  0  0  0
   -3.9474    0.9082   -0.8877 H   0  0  0  0  0  0  0  0  0  0  0  0
   -3.8991    0.9021    0.8898 H   0  0  0  0  0  0  0  0  0  0  0  0
   -1.4063    0.1939   -0.0031 C   0  0  0  0  0  0  0  0  0  0  0  0
   -2.7330   -1.3101   -0.8969 H   0  0  0  0  0  0  0  0  0  0  0  0
   -2.6425   -1.1936    0.8660 H   0  0  0  0  0  0  0  0  0  0  0  0
   -0.1615   -0.7052    0.0558 C   0  0  0  0  0  0  0  0  0  0  0  0
   -1.4058    0.8440    0.8210 H   0  0  0  0  0  0  0  0  0  0  0  0
   -1.4004    0.8467   -0.9162 H   0  0  0  0  0  0  0  0  0  0  0  0
   -0.1301   -1.3280    0.9613 H   0  0  0  0  0  0  0  0  0  0  0  0
    0.7343   -0.1301    0.0145 H   0  0  0  0  0  0  0  0  0  0  0  0
   -0.1549   -1.3179   -0.7697 H   0  0  0  0  0  0  0  0  0  0  0  0
  1  3  1  0  0  0  0
  1  5  1  0  0  0  0
  2  1  1  0  0  0  0
  2  8  1  0  0  0  0
  4  1  1  0  0  0  0
  6  2  1  0  0  0  0
  6  9  1  0  0  0  0
  6 10  1  0  0  0  0
  7  2  1  0  0  0  0
  9 12  1  0  0  0  0
 11  6  1  0  0  0  0
 13  9  1  0  0  0  0
 14  9  1  0  0  0  0
M  END
$$$$
