butane_opt
 OpenBabel08242015403D

 14 13  0  0  0  0  0  0  0  0999 V2000
   -3.9507    0.2654    0.0403 C   0  0  0  0  0  0  0  0  0  0  0  0
   -2.6924   -0.6128    0.0123 C   0  0  0  0  0  0  0  0  0  0  0  0
   -4.8212   -0.3201    0.0322 H   0  0  0  0  0  0  0  0  0  0  0  0
   -3.9846    0.8251   -0.8146 H   0  0  0  0  0  0  0  0  0  0  0  0
   -3.9611    1.0085    0.9314 H   0  0  0  0  0  0  0  0  0  0  0  0
   -1.4034    0.1706   -0.0069 C   0  0  0  0  0  0  0  0  0  0  0  0
   -2.7160   -1.3460   -0.9037 H   0  0  0  0  0  0  0  0  0  0  0  0
   -2.6566   -1.2057    0.8497 H   0  0  0  0  0  0  0  0  0  0  0  0
   -0.1657   -0.6845    0.0588 C   0  0  0  0  0  0  0  0  0  0  0  0
   -1.4480    0.8340    0.8394 H   0  0  0  0  0  0  0  0  0  0  0  0
   -1.3359    0.8246   -0.9327 H   0  0  0  0  0  0  0  0  0  0  0  0
   -0.0967   -1.4307    1.0500 H   0  0  0  0  0  0  0  0  0  0  0  0
    0.7714   -0.0575   -0.0957 H   0  0  0  0  0  0  0  0  0  0  0  0
   -0.2341   -1.2605   -0.7528 H   0  0  0  0  0  0  0  0  0  0  0  0
  1  5  1  0  0  0  0
  2  1  1  0  0  0  0
  2  8  1  0  0  0  0
  3  1  1  0  0  0  0
  4  1  1  0  0  0  0
  6  2  1  0  0  0  0
  6  9  1  0  0  0  0
  6 10  1  0  0  0  0
  7  2  1  0  0  0  0
  9 12  1  0  0  0  0
 11  6  1  0  0  0  0
 13  9  1  0  0  0  0
 14  9  1  0  0  0  0
M  END
$$$$
