14
butane_opt
C  -3.941698   0.276049   0.050023
C  -2.690813  -0.625268   0.016980
H  -4.867448  -0.351942   0.020687
H  -3.941376   0.851854  -0.854941
H  -3.958693   0.981710   0.932023
C  -1.403507   0.177681  -0.022096
H  -2.701651  -1.318083  -0.843942
H  -2.691507  -1.192073   0.890417
C  -0.178873  -0.692520   0.056391
H  -1.372770   0.815399   0.798032
H  -1.342272   0.829098  -0.938521
H  -0.233756  -1.302378   0.952415
H   0.754541  -0.054461   0.048779
H  -0.089922  -1.362503  -0.779277
