butane_opt
 OpenBabel08242015403D

 14 13  0  0  0  0  0  0  0  0999 V2000
   -3.9409    0.2522    0.0375 C   0  0  0  0  0  0  0  0  0  0  0  0
   -2.7018   -0.5956    0.0058 C   0  0  0  0  0  0  0  0  0  0  0  0
   -4.8884   -0.3843    0.2097 H   0  0  0  0  0  0  0  0  0  0  0  0
   -3.9694    0.9493   -0.9001 H   0  0  0  0  0  0  0  0  0  0  0  0
   -3.8919    0.8335    0.8590 H   0  0  0  0  0  0  0  0  0  0  0  0
   -1.4104    0.1881   -0.0035 C   0  0  0  0  0  0  0  0  0  0  0  0
   -2.7674   -1.3309   -0.9103 H   0  0  0  0  0  0  0  0  0  0  0  0
   -2.6584   -1.1850    0.8772 H   0  0  0  0  0  0  0  0  0  0  0  0
   -0.1592   -0.7039    0.0565 C   0  0  0  0  0  0  0  0  0  0  0  0
   -1.4389    0.8688    0.8545 H   0  0  0  0  0  0  0  0  0  0  0  0
   -1.3992    0.8681   -0.9072 H   0  0  0  0  0  0  0  0  0  0  0  0
   -0.0929   -1.2941    0.9401 H   0  0  0  0  0  0  0  0  0  0  0  0
    0.7180   -0.1368    0.0480 H   0  0  0  0  0  0  0  0  0  0  0  0
   -0.0834   -1.3578   -0.7963 H   0  0  0  0  0  0  0  0  0  0  0  0
  1  3  1  0  0  0  0
  1  5  1  0  0  0  0
  2  1  1  0  0  0  0
  2  8  1  0  0  0  0
  4  1  1  0  0  0  0
  6  2  1  0  0  0  0
  6  9  1  0  0  0  0
  6 10  1  0  0  0  0
  7  2  1  0  0  0  0
  9 12  1  0  0  0  0
 11  6  1  0  0  0  0
 13  9  1  0  0  0  0
 14  9  1  0  0  0  0
M  END
$$$$
