14
butane_opt
C  -3.933671   0.259192   0.045391
C  -2.702165  -0.617041   0.018005
H  -4.834957  -0.318483  -0.021216
H  -3.911544   0.774796  -0.822869
H  -3.939981   0.983910   0.951429
C  -1.418784   0.195367  -0.032893
H  -2.738509  -1.278768  -0.814967
H  -2.628722  -1.232367   0.900640
C  -0.165579  -0.699656   0.059041
H  -1.394719   0.897545   0.826756
H  -1.414216   0.821114  -0.903783
H  -0.133282  -1.349980   0.976403
H   0.723275  -0.105412   0.057054
H  -0.111596  -1.322894  -0.772469
