butane_opt
 OpenBabel08242015403D

 14 13  0  0  0  0  0  0  0  0999 V2000
   -3.9408    0.2676    0.0300 C   0  0  0  0  0  0  0  0  0  0  0  0
   -2.6922   -0.6230    0.0197 C   0  0  0  0  0  0  0  0  0  0  0  0
   -4.8235   -0.3017    0.0250 H   0  0  0  0  0  0  0  0  0  0  0  0
   -3.9504    0.8632   -0.8417 H   0  0  0  0  0  0  0  0  0  0  0  0
   -3.9742    0.9856    0.9067 H   0  0  0  0  0  0  0  0  0  0  0  0
   -1.4156    0.1720    0.0049 C   0  0  0  0  0  0  0  0  0  0  0  0
   -2.6859   -1.3182   -0.8631 H   0  0  0  0  0  0  0  0  0  0  0  0
   -2.6907   -1.2149    0.8896 H   0  0  0  0  0  0  0  0  0  0  0  0
   -0.1664   -0.6837    0.0468 C   0  0  0  0  0  0  0  0  0  0  0  0
   -1.3766    0.8584    0.8660 H   0  0  0  0  0  0  0  0  0  0  0  0
   -1.3882    0.7601   -0.8662 H   0  0  0  0  0  0  0  0  0  0  0  0
   -0.1204   -1.3941    0.9788 H   0  0  0  0  0  0  0  0  0  0  0  0
    0.7567   -0.0877   -0.1266 H   0  0  0  0  0  0  0  0  0  0  0  0
   -0.1930   -1.2080   -0.7277 H   0  0  0  0  0  0  0  0  0  0  0  0
  1  5  1  0  0  0  0
  2  1  1  0  0  0  0
  2  8  1  0  0  0  0
  3  1  1  0  0  0  0
  4  1  1  0  0  0  0
  6  2  1  0  0  0  0
  6  9  1  0  0  0  0
  6 10  1  0  0  0  0
  7  2  1  0  0  0  0
  9 12  1  0  0  0  0
 11  6  1  0  0  0  0
 13  9  1  0  0  0  0
 14  9  1  0  0  0  0
M  END
$$$$
