14
butane_opt
C  -3.934674   0.259186   0.025449
C  -2.721222  -0.611773   0.013570
H  -4.855705  -0.367558   0.115764
H  -4.010464   0.900699  -0.893855
H  -3.932481   0.889133   0.869684
C  -1.406169   0.205180   0.020401
H  -2.757545  -1.315013  -0.848340
H  -2.697277  -1.191239   0.885923
C  -0.143613  -0.710203   0.045261
H  -1.417542   0.839214   0.842371
H  -1.386101   0.860114  -0.888051
H  -0.082911  -1.333255   0.927683
H   0.738201  -0.131715  -0.073923
H  -0.143613  -1.330759  -0.759150
