14
butane_opt
C  -3.956494   0.276695  -0.002805
C  -2.706613  -0.627207   0.067473
H  -4.858110  -0.294451   0.059816
H  -4.018848   0.979814  -0.935686
H  -3.970899   0.894531   0.817392
C  -1.390347   0.168319   0.031233
H  -2.663653  -1.275338  -0.766615
H  -2.772557  -1.298729   0.972443
C  -0.146160  -0.677284   0.008847
H  -1.381155   0.803369   0.864211
H  -1.399094   0.777318  -0.862964
H  -0.192072  -1.195046   0.826267
H   0.751383  -0.071935   0.135970
H  -0.128978  -1.472370  -0.943067
