butane_opt
 OpenBabel08242015403D

 14 13  0  0  0  0  0  0  0  0999 V2000
   -3.9424    0.2535   -0.0082 C   0  0  0  0  0  0  0  0  0  0  0  0
   -2.6951   -0.6022    0.0662 C   0  0  0  0  0  0  0  0  0  0  0  0
   -4.8764   -0.3636    0.1408 H   0  0  0  0  0  0  0  0  0  0  0  0
   -3.9709    1.0077   -0.9773 H   0  0  0  0  0  0  0  0  0  0  0  0
   -3.8721    0.7666    0.7625 H   0  0  0  0  0  0  0  0  0  0  0  0
   -1.4092    0.1944    0.0433 C   0  0  0  0  0  0  0  0  0  0  0  0
   -2.6902   -1.3164   -0.7978 H   0  0  0  0  0  0  0  0  0  0  0  0
   -2.7295   -1.1757    0.8933 H   0  0  0  0  0  0  0  0  0  0  0  0
   -0.1620   -0.7041    0.0037 C   0  0  0  0  0  0  0  0  0  0  0  0
   -1.4124    0.9197    0.9312 H   0  0  0  0  0  0  0  0  0  0  0  0
   -1.4552    0.8033   -0.8291 H   0  0  0  0  0  0  0  0  0  0  0  0
   -0.1362   -1.2850    0.8677 H   0  0  0  0  0  0  0  0  0  0  0  0
    0.7576   -0.1144    0.0254 H   0  0  0  0  0  0  0  0  0  0  0  0
   -0.1353   -1.4105   -0.8571 H   0  0  0  0  0  0  0  0  0  0  0  0
  1  2  1  0  0  0  0
  1  3  1  0  0  0  0
  1  5  1  0  0  0  0
  2  8  1  0  0  0  0
  4  1  1  0  0  0  0
  6  2  1  0  0  0  0
  6 10  1  0  0  0  0
  7  2  1  0  0  0  0
  9 13  1  0  0  0  0
  9  6  1  0  0  0  0
  9 12  1  0  0  0  0
 11  6  1  0  0  0  0
 14  9  1  0  0  0  0
M  END
$$$$
