butane_opt
 OpenBabel08242015403D

 14 13  0  0  0  0  0  0  0  0999 V2000
   -3.9377    0.2716    0.0299 C   0  0  0  0  0  0  0  0  0  0  0  0
   -2.6877   -0.6267    0.0202 C   0  0  0  0  0  0  0  0  0  0  0  0
   -4.8538   -0.3028   -0.0533 H   0  0  0  0  0  0  0  0  0  0  0  0
   -3.9756    0.7949   -0.7910 H   0  0  0  0  0  0  0  0  0  0  0  0
   -3.9537    1.0476    0.9939 H   0  0  0  0  0  0  0  0  0  0  0  0
   -1.4094    0.1770   -0.0036 C   0  0  0  0  0  0  0  0  0  0  0  0
   -2.7099   -1.3024   -0.8044 H   0  0  0  0  0  0  0  0  0  0  0  0
   -2.6842   -1.2823    0.9152 H   0  0  0  0  0  0  0  0  0  0  0  0
   -0.1680   -0.6789    0.0479 C   0  0  0  0  0  0  0  0  0  0  0  0
   -1.4198    0.8081    0.7989 H   0  0  0  0  0  0  0  0  0  0  0  0
   -1.3970    0.8149   -0.9258 H   0  0  0  0  0  0  0  0  0  0  0  0
   -0.1804   -1.3622    0.9952 H   0  0  0  0  0  0  0  0  0  0  0  0
    0.7538   -0.0933   -0.0297 H   0  0  0  0  0  0  0  0  0  0  0  0
   -0.1739   -1.3035   -0.7792 H   0  0  0  0  0  0  0  0  0  0  0  0
  1  5  1  0  0  0  0
  2  1  1  0  0  0  0
  2  8  1  0  0  0  0
  3  1  1  0  0  0  0
  4  1  1  0  0  0  0
  6  2  1  0  0  0  0
  6  9  1  0  0  0  0
  6 10  1  0  0  0  0
  7  2  1  0  0  0  0
  9 12  1  0  0  0  0
 11  6  1  0  0  0  0
 13  9  1  0  0  0  0
 14  9  1  0  0  0  0
M  END
$$$$
