14
butane_opt
C  -3.934187   0.263389  -0.000427
C  -2.702050  -0.605562   0.071577
H  -4.883750  -0.359423   0.040407
H  -3.943274   0.894305  -0.942286
H  -3.974554   0.867635   0.810916
C  -1.408988   0.187067   0.025560
H  -2.682984  -1.271144  -0.784006
H  -2.723895  -1.253261   0.988152
C  -0.159395  -0.695286   0.007792
H  -1.412946   0.838668   0.875523
H  -1.417402   0.801649  -0.841263
H  -0.192750  -1.208309   0.824795
H   0.746457  -0.128186   0.097691
H  -0.076693  -1.452330  -0.901293
