14
butane_opt
C  -3.948576   0.270065   0.045274
C  -2.683709  -0.630224   0.007233
H  -4.840808  -0.297753   0.009579
H  -3.981036   0.832325  -0.841238
H  -3.986611   0.991370   0.930019
C  -1.400943   0.180302  -0.006148
H  -2.732988  -1.353108  -0.901523
H  -2.675161  -1.184516   0.848636
C  -0.169256  -0.681677   0.058274
H  -1.373470   0.855350   0.833254
H  -1.403686   0.784506  -0.893862
H  -0.087237  -1.440778   1.043070
H   0.722673  -0.125331  -0.125502
H  -0.232851  -1.190309  -0.691363
