14
butane_opt
C  -3.963469   0.282964  -0.014234
C  -2.697175  -0.633879   0.075961
H  -4.856797  -0.294434  -0.052608
H  -3.919448   0.854607  -0.891596
H  -3.990076   0.963575   0.856182
C  -1.394803   0.173837   0.035940
H  -2.679491  -1.253287  -0.727541
H  -2.770439  -1.330002   1.020794
C  -0.158858  -0.679375  -0.000493
H  -1.310674   0.857776   0.905421
H  -1.430003   0.785257  -0.858778
H  -0.113180  -1.267648   0.868497
H   0.777343  -0.071022   0.053377
H  -0.176638  -1.429435  -0.894296
