14
butane_opt
C  -3.946513   0.277492   0.036334
C  -2.692520  -0.621011   0.033587
H  -4.828526  -0.302943  -0.078314
H  -3.916097   0.762684  -0.789730
H  -3.973663   1.052578   0.977355
C  -1.401343   0.159788  -0.017383
H  -2.709166  -1.320665  -0.848354
H  -2.699140  -1.219264   0.912157
C  -0.173237  -0.682275   0.051626
H  -1.400832   0.811745   0.804179
H  -1.329451   0.854845  -0.983205
H  -0.162861  -1.325978   0.963904
H   0.758565  -0.059427   0.014195
H  -0.206666  -1.329392  -0.765697
