butane_opt
 OpenBabel08242015403D

 14 13  0  0  0  0  0  0  0  0999 V2000
   -3.9614    0.2680    0.0392 C   0  0  0  0  0  0  0  0  0  0  0  0
   -2.7052   -0.6229    0.0106 C   0  0  0  0  0  0  0  0  0  0  0  0
   -4.8938   -0.3372   -0.0086 H   0  0  0  0  0  0  0  0  0  0  0  0
   -4.0086    0.8116   -0.7735 H   0  0  0  0  0  0  0  0  0  0  0  0
   -3.9555    1.0362    0.9687 H   0  0  0  0  0  0  0  0  0  0  0  0
   -1.3936    0.1875   -0.0079 C   0  0  0  0  0  0  0  0  0  0  0  0
   -2.7013   -1.3228   -0.8661 H   0  0  0  0  0  0  0  0  0  0  0  0
   -2.6984   -1.1813    0.8412 H   0  0  0  0  0  0  0  0  0  0  0  0
   -0.1540   -0.6979    0.0581 C   0  0  0  0  0  0  0  0  0  0  0  0
   -1.3468    0.7903    0.8193 H   0  0  0  0  0  0  0  0  0  0  0  0
   -1.3450    0.8753   -0.9556 H   0  0  0  0  0  0  0  0  0  0  0  0
   -0.0906   -1.4174    1.0230 H   0  0  0  0  0  0  0  0  0  0  0  0
    0.7737   -0.0847   -0.0567 H   0  0  0  0  0  0  0  0  0  0  0  0
   -0.1839   -1.2614   -0.7286 H   0  0  0  0  0  0  0  0  0  0  0  0
  1  5  1  0  0  0  0
  2  1  1  0  0  0  0
  2  8  1  0  0  0  0
  3  1  1  0  0  0  0
  4  1  1  0  0  0  0
  6  2  1  0  0  0  0
  6  9  1  0  0  0  0
  6 10  1  0  0  0  0
  7  2  1  0  0  0  0
  9 12  1  0  0  0  0
 11  6  1  0  0  0  0
 13  9  1  0  0  0  0
 14  9  1  0  0  0  0
M  END
$$$$
