14
butane_opt
C  -3.944257   0.269885   0.041419
C  -2.692389  -0.624228   0.036925
H  -4.842555  -0.326560  -0.058161
H  -3.940672   0.810501  -0.793706
H  -4.007309   1.049212   0.959006
C  -1.410119   0.177798  -0.026979
H  -2.709691  -1.339880  -0.873333
H  -2.719790  -1.204276   0.898408
C  -0.156437  -0.684108   0.051044
H  -1.389339   0.772039   0.760769
H  -1.397413   0.825416  -0.931720
H  -0.185301  -1.316624   0.986612
H   0.746113  -0.069800   0.081161
H  -0.139410  -1.346045  -0.799525
