butane_opt
 OpenBabel08242015403D

 14 13  0  0  0  0  0  0  0  0999 V2000
   -3.9368    0.2496    0.0353 C   0  0  0  0  0  0  0  0  0  0  0  0
   -2.7081   -0.6050    0.0116 C   0  0  0  0  0  0  0  0  0  0  0  0
   -4.8467   -0.3419    0.1206 H   0  0  0  0  0  0  0  0  0  0  0  0
   -4.0034    0.8467   -0.8653 H   0  0  0  0  0  0  0  0  0  0  0  0
   -3.9347    0.9586    0.9429 H   0  0  0  0  0  0  0  0  0  0  0  0
   -1.4100    0.1954   -0.0055 C   0  0  0  0  0  0  0  0  0  0  0  0
   -2.7718   -1.3043   -0.8557 H   0  0  0  0  0  0  0  0  0  0  0  0
   -2.7131   -1.2250    0.9000 H   0  0  0  0  0  0  0  0  0  0  0  0
   -0.1438   -0.7001    0.0552 C   0  0  0  0  0  0  0  0  0  0  0  0
   -1.4435    0.8442    0.7912 H   0  0  0  0  0  0  0  0  0  0  0  0
   -1.4081    0.9133   -0.9565 H   0  0  0  0  0  0  0  0  0  0  0  0
   -0.1445   -1.3043    0.9450 H   0  0  0  0  0  0  0  0  0  0  0  0
    0.7162   -0.1641    0.0811 H   0  0  0  0  0  0  0  0  0  0  0  0
   -0.0818   -1.3808   -0.8175 H   0  0  0  0  0  0  0  0  0  0  0  0
  1  3  1  0  0  0  0
  1  5  1  0  0  0  0
  2  1  1  0  0  0  0
  2  8  1  0  0  0  0
  4  1  1  0  0  0  0
  6  2  1  0  0  0  0
  6  9  1  0  0  0  0
  6 10  1  0  0  0  0
  7  2  1  0  0  0  0
  9 13  1  0  0  0  0
  9 12  1  0  0  0  0
 11  6  1  0  0  0  0
 14  9  1  0  0  0  0
M  END
$$$$
