butane_opt
 OpenBabel08242015403D

 14 13  0  0  0  0  0  0  0  0999 V2000
   -3.9687    0.2771   -0.0003 C   0  0  0  0  0  0  0  0  0  0  0  0
   -2.6963   -0.6371    0.0710 C   0  0  0  0  0  0  0  0  0  0  0  0
   -4.8587   -0.3076    0.0485 H   0  0  0  0  0  0  0  0  0  0  0  0
   -3.9763    0.9603   -0.9439 H   0  0  0  0  0  0  0  0  0  0  0  0
   -3.9948    0.8980    0.8117 H   0  0  0  0  0  0  0  0  0  0  0  0
   -1.4005    0.1741    0.0156 C   0  0  0  0  0  0  0  0  0  0  0  0
   -2.6931   -1.2894   -0.7432 H   0  0  0  0  0  0  0  0  0  0  0  0
   -2.6792   -1.2447    0.9647 H   0  0  0  0  0  0  0  0  0  0  0  0
   -0.1564   -0.6793    0.0122 C   0  0  0  0  0  0  0  0  0  0  0  0
   -1.3104    0.8489    0.8909 H   0  0  0  0  0  0  0  0  0  0  0  0
   -1.4058    0.7865   -0.8683 H   0  0  0  0  0  0  0  0  0  0  0  0
   -0.1559   -1.1806    0.8408 H   0  0  0  0  0  0  0  0  0  0  0  0
    0.7949   -0.0681    0.1579 H   0  0  0  0  0  0  0  0  0  0  0  0
   -0.0935   -1.4867   -0.9172 H   0  0  0  0  0  0  0  0  0  0  0  0
  1  3  1  0  0  0  0
  1  2  1  0  0  0  0
  1  5  1  0  0  0  0
  2  8  1  0  0  0  0
  4  1  1  0  0  0  0
  6  2  1  0  0  0  0
  6 10  1  0  0  0  0
  7  2  1  0  0  0  0
  9  6  1  0  0  0  0
  9 13  1  0  0  0  0
  9 12  1  0  0  0  0
 11  6  1  0  0  0  0
 14  9  1  0  0  0  0
M  END
$$$$
