14
butane_opt
C  -3.957039   0.250735   0.031046
C  -2.708599  -0.603333   0.028252
H  -4.888039  -0.358844  -0.009082
H  -3.918050   0.785479  -0.806438
H  -3.995551   0.996854   0.924574
C  -1.402856   0.208855  -0.013572
H  -2.731685  -1.293789  -0.830924
H  -2.689896  -1.227434   0.911174
C  -0.137139  -0.709652   0.046022
H  -1.372621   0.890889   0.819795
H  -1.412488   0.810303  -0.870038
H  -0.124629  -1.371815   0.985863
H   0.732628  -0.156992  -0.020593
H  -0.138981  -1.316907  -0.747484
