14
butane_opt
C  -3.953575   0.267418   0.030088
C  -2.691209  -0.613814   0.008891
H  -4.861560  -0.348650   0.140094
H  -4.011426   0.948552  -0.892226
H  -3.890994   0.879080   0.867836
C  -1.404486   0.177098   0.002774
H  -2.716717  -1.267833  -0.797606
H  -2.668717  -1.257991   0.928169
C  -0.162532  -0.693581   0.051174
H  -1.371739   0.838163   0.850420
H  -1.356952   0.808177  -0.897721
H  -0.202274  -1.221522   0.895355
H   0.740177  -0.103207   0.053886
H  -0.136454  -1.392187  -0.842410
