14
butane_opt
C  -3.925813   0.257887  -0.004782
C  -2.697961  -0.608212   0.060545
H  -4.841332  -0.360340  -0.065807
H  -3.903690   0.831284  -0.868898
H  -3.983219   1.037176   0.909007
C  -1.412580   0.185847   0.030679
H  -2.708100  -1.225474  -0.750438
H  -2.787128  -1.304639   1.004409
C  -0.172362  -0.698301   0.012845
H  -1.361490   0.863941   0.903595
H  -1.456325   0.819952  -0.873830
H  -0.120766  -1.317611   0.886395
H   0.766786  -0.096811  -0.036269
H  -0.127808  -1.361787  -0.848905
