14
butane_opt
C  -3.963550   0.274714   0.023367
C  -2.697049  -0.631707   0.049204
H  -4.848176  -0.260246  -0.076745
H  -3.965976   0.825554  -0.859982
H  -4.005426   1.011812   0.924943
C  -1.390729   0.173042  -0.000714
H  -2.758739  -1.298126  -0.799955
H  -2.714187  -1.221286   0.908567
C  -0.154757  -0.687257   0.035362
H  -1.394658   0.849815   0.817739
H  -1.355676   0.796362  -0.894143
H  -0.148604  -1.330076   0.959428
H   0.803670  -0.040572  -0.003037
H  -0.172634  -1.344903  -0.819966
