butane_opt
 OpenBabel08242015403D

 14 13  0  0  0  0  0  0  0  0999 V2000
   -3.9527    0.2732   -0.0163 C   0  0  0  0  0  0  0  0  0  0  0  0
   -2.7080   -0.6315    0.0596 C   0  0  0  0  0  0  0  0  0  0  0  0
   -4.8251   -0.2801    0.1313 H   0  0  0  0  0  0  0  0  0  0  0  0
   -3.9981    0.9795   -0.9800 H   0  0  0  0  0  0  0  0  0  0  0  0
   -3.9569    0.8703    0.8162 H   0  0  0  0  0  0  0  0  0  0  0  0
   -1.3923    0.1765    0.0542 C   0  0  0  0  0  0  0  0  0  0  0  0
   -2.7238   -1.2666   -0.7807 H   0  0  0  0  0  0  0  0  0  0  0  0
   -2.7623   -1.3051    0.9836 H   0  0  0  0  0  0  0  0  0  0  0  0
   -0.1536   -0.6854   -0.0004 C   0  0  0  0  0  0  0  0  0  0  0  0
   -1.3563    0.9094    0.9363 H   0  0  0  0  0  0  0  0  0  0  0  0
   -1.4113    0.7940   -0.8344 H   0  0  0  0  0  0  0  0  0  0  0  0
   -0.1191   -1.2647    0.8455 H   0  0  0  0  0  0  0  0  0  0  0  0
    0.7453   -0.1171    0.0309 H   0  0  0  0  0  0  0  0  0  0  0  0
   -0.1419   -1.3771   -0.8814 H   0  0  0  0  0  0  0  0  0  0  0  0
  1  2  1  0  0  0  0
  1  3  1  0  0  0  0
  1  5  1  0  0  0  0
  2  8  1  0  0  0  0
  4  1  1  0  0  0  0
  6  2  1  0  0  0  0
  6 10  1  0  0  0  0
  7  2  1  0  0  0  0
  9 13  1  0  0  0  0
  9  6  1  0  0  0  0
  9 12  1  0  0  0  0
 11  6  1  0  0  0  0
 14  9  1  0  0  0  0
M  END
$$$$
