14
butane_opt
C  -3.940018   0.255774   0.047401
C  -2.692092  -0.605441  -0.008352
H  -4.893294  -0.348023   0.164743
H  -3.984348   0.891105  -0.859612
H  -3.855466   0.907541   0.906734
C  -1.416057   0.183572  -0.017165
H  -2.723270  -1.283836  -0.851711
H  -2.718992  -1.171842   0.855705
C  -0.163300  -0.694601   0.070243
H  -1.440483   0.871251   0.851917
H  -1.374253   0.790388  -0.922965
H  -0.108606  -1.368073   0.986713
H   0.733403  -0.114585  -0.014396
H  -0.125956  -1.318682  -0.777958
