14
butane_opt
C  -3.948770   0.260293   0.025947
C  -2.704958  -0.613198   0.041212
H  -4.855213  -0.336191  -0.081241
H  -3.932523   0.739506  -0.806881
H  -3.970685   1.073299   0.996911
C  -1.402319   0.192016  -0.007350
H  -2.769235  -1.301716  -0.843754
H  -2.731532  -1.225638   0.895935
C  -0.154435  -0.695770   0.051627
H  -1.373311   0.809019   0.817434
H  -1.380459   0.907928  -0.981787
H  -0.111940  -1.359385   0.971668
H   0.722405  -0.135787  -0.037531
H  -0.098692  -1.366090  -0.812647
