butane_opt
 OpenBabel08242015403D

 14 13  0  0  0  0  0  0  0  0999 V2000
   -3.9539    0.2540    0.0426 C   0  0  0  0  0  0  0  0  0  0  0  0
   -2.6933   -0.6000    0.0109 C   0  0  0  0  0  0  0  0  0  0  0  0
   -4.8872   -0.3644    0.0516 H   0  0  0  0  0  0  0  0  0  0  0  0
   -3.9645    0.7744   -0.7860 H   0  0  0  0  0  0  0  0  0  0  0  0
   -3.9462    0.9878    0.9601 H   0  0  0  0  0  0  0  0  0  0  0  0
   -1.4081    0.1952   -0.0202 C   0  0  0  0  0  0  0  0  0  0  0  0
   -2.7636   -1.2824   -0.8354 H   0  0  0  0  0  0  0  0  0  0  0  0
   -2.6998   -1.2008    0.8660 H   0  0  0  0  0  0  0  0  0  0  0  0
   -0.1485   -0.6973    0.0641 C   0  0  0  0  0  0  0  0  0  0  0  0
   -1.4016    0.7999    0.7556 H   0  0  0  0  0  0  0  0  0  0  0  0
   -1.3932    0.8780   -0.9681 H   0  0  0  0  0  0  0  0  0  0  0  0
   -0.1737   -1.3542    0.9888 H   0  0  0  0  0  0  0  0  0  0  0  0
    0.7568   -0.1435    0.0707 H   0  0  0  0  0  0  0  0  0  0  0  0
   -0.0992   -1.3965   -0.8185 H   0  0  0  0  0  0  0  0  0  0  0  0
  1  3  1  0  0  0  0
  1  5  1  0  0  0  0
  2  1  1  0  0  0  0
  2  8  1  0  0  0  0
  4  1  1  0  0  0  0
  6  2  1  0  0  0  0
  6  9  1  0  0  0  0
  6 10  1  0  0  0  0
  7  2  1  0  0  0  0
  9 13  1  0  0  0  0
  9 12  1  0  0  0  0
 11  6  1  0  0  0  0
 14  9  1  0  0  0  0
M  END
$$$$
