14
butane_opt
C  -3.933651   0.257209  -0.014528
C  -2.691623  -0.607151   0.058911
H  -4.907731  -0.363461   0.052113
H  -3.972658   0.910753  -0.924827
H  -3.927168   0.891008   0.841734
C  -1.415320   0.193702   0.045850
H  -2.661593  -1.243228  -0.755834
H  -2.795295  -1.243149   0.969669
C  -0.157083  -0.704149   0.005907
H  -1.405675   0.908916   0.936976
H  -1.445642   0.745059  -0.819657
H  -0.075453  -1.323609   0.902633
H   0.771014  -0.093955  -0.072310
H  -0.225906  -1.335909  -0.841584
