14
butane_opt
C  -3.937605   0.270396   0.055244
C  -2.686457  -0.626905   0.009899
H  -4.813358  -0.293988  -0.053264
H  -3.948193   0.830803  -0.805300
H  -4.018273   1.003324   0.958316
C  -1.407168   0.166954  -0.024400
H  -2.750280  -1.327625  -0.855929
H  -2.649874  -1.232427   0.872551
C  -0.168839  -0.680259   0.060271
H  -1.400550   0.845395   0.821843
H  -1.406517   0.862893  -0.982456
H  -0.183103  -1.343563   1.012589
H   0.733968  -0.071685   0.031387
H  -0.189704  -1.307322  -0.759362
