14
butane_opt
C  -3.951138   0.278775  -0.001638
C  -2.704103  -0.626780   0.062258
H  -4.854071  -0.304516   0.097214
H  -3.947161   0.957089  -0.929014
H  -4.008978   0.826250   0.785139
C  -1.399475   0.179059   0.026508
H  -2.679014  -1.268061  -0.755991
H  -2.730880  -1.295574   0.964127
C  -0.157018  -0.689550   0.008973
H  -1.336655   0.887843   0.903348
H  -1.373596   0.753718  -0.822526
H  -0.183453  -1.196794   0.866458
H   0.749242  -0.093738   0.093488
H  -0.122147  -1.437021  -0.930596
