butane_opt
 OpenBabel08242015403D

 14 13  0  0  0  0  0  0  0  0999 V2000
   -3.9453    0.2685   -0.0012 C   0  0  0  0  0  0  0  0  0  0  0  0
   -2.6861   -0.6262    0.0699 C   0  0  0  0  0  0  0  0  0  0  0  0
   -4.8377   -0.3366   -0.0732 H   0  0  0  0  0  0  0  0  0  0  0  0
   -3.9190    0.8801   -0.9160 H   0  0  0  0  0  0  0  0  0  0  0  0
   -4.0470    0.9644    0.8638 H   0  0  0  0  0  0  0  0  0  0  0  0
   -1.4086    0.1794    0.0346 C   0  0  0  0  0  0  0  0  0  0  0  0
   -2.6770   -1.2840   -0.7673 H   0  0  0  0  0  0  0  0  0  0  0  0
   -2.6957   -1.2559    0.9890 H   0  0  0  0  0  0  0  0  0  0  0  0
   -0.1723   -0.6860    0.0099 C   0  0  0  0  0  0  0  0  0  0  0  0
   -1.3355    0.8528    0.8891 H   0  0  0  0  0  0  0  0  0  0  0  0
   -1.3689    0.8487   -0.8907 H   0  0  0  0  0  0  0  0  0  0  0  0
   -0.1123   -1.2902    0.8674 H   0  0  0  0  0  0  0  0  0  0  0  0
    0.7333   -0.0883    0.0140 H   0  0  0  0  0  0  0  0  0  0  0  0
   -0.2098   -1.3962   -0.8944 H   0  0  0  0  0  0  0  0  0  0  0  0
  1  2  1  0  0  0  0
  1  5  1  0  0  0  0
  2  8  1  0  0  0  0
  3  1  1  0  0  0  0
  4  1  1  0  0  0  0
  6  2  1  0  0  0  0
  6 10  1  0  0  0  0
  7  2  1  0  0  0  0
  9 13  1  0  0  0  0
  9  6  1  0  0  0  0
  9 12  1  0  0  0  0
 11  6  1  0  0  0  0
 14  9  1  0  0  0  0
M  END
$$$$
