butane_opt
 OpenBabel08242015403D

 14 13  0  0  0  0  0  0  0  0999 V2000
   -3.9414    0.2615    0.0461 C   0  0  0  0  0  0  0  0  0  0  0  0
   -2.6976   -0.6162    0.0226 C   0  0  0  0  0  0  0  0  0  0  0  0
   -4.8700   -0.3377    0.0702 H   0  0  0  0  0  0  0  0  0  0  0  0
   -4.0241    0.8430   -0.8263 H   0  0  0  0  0  0  0  0  0  0  0  0
   -3.9700    0.9559    0.9427 H   0  0  0  0  0  0  0  0  0  0  0  0
   -1.4130    0.1951   -0.0342 C   0  0  0  0  0  0  0  0  0  0  0  0
   -2.7652   -1.3477   -0.8781 H   0  0  0  0  0  0  0  0  0  0  0  0
   -2.6510   -1.1984    0.8684 H   0  0  0  0  0  0  0  0  0  0  0  0
   -0.1561   -0.6947    0.0635 C   0  0  0  0  0  0  0  0  0  0  0  0
   -1.3652    0.8119    0.7432 H   0  0  0  0  0  0  0  0  0  0  0  0
   -1.3720    0.8438   -0.9472 H   0  0  0  0  0  0  0  0  0  0  0  0
   -0.1923   -1.2933    0.9489 H   0  0  0  0  0  0  0  0  0  0  0  0
    0.7209   -0.1058    0.1629 H   0  0  0  0  0  0  0  0  0  0  0  0
   -0.0284   -1.3987   -0.8178 H   0  0  0  0  0  0  0  0  0  0  0  0
  1  3  1  0  0  0  0
  1  5  1  0  0  0  0
  2  1  1  0  0  0  0
  2  8  1  0  0  0  0
  4  1  1  0  0  0  0
  6  2  1  0  0  0  0
  6  9  1  0  0  0  0
  6 10  1  0  0  0  0
  7  2  1  0  0  0  0
  9 13  1  0  0  0  0
  9 12  1  0  0  0  0
 11  6  1  0  0  0  0
 14  9  1  0  0  0  0
M  END
$$$$
