14
butane_opt
C  -3.947248   0.260497   0.025642
C  -2.705254  -0.603136   0.037505
H  -4.876817  -0.371830  -0.067633
H  -3.945187   0.764746  -0.802553
H  -3.939852   0.982743   0.946242
C  -1.405100   0.197966  -0.001386
H  -2.762073  -1.297505  -0.848922
H  -2.714409  -1.199941   0.913454
C  -0.146483  -0.699992   0.044015
H  -1.393400   0.792850   0.808098
H  -1.380639   0.856575  -0.911833
H  -0.124184  -1.379429   0.955870
H   0.700965  -0.155738  -0.022219
H  -0.130775  -1.335867  -0.792162
