14
butane_opt
C  -3.947714   0.279084   0.033943
C  -2.694655  -0.628670   0.032569
H  -4.851073  -0.320622  -0.076524
H  -3.952437   0.738332  -0.767465
H  -4.003760   1.080131   0.980085
C  -1.401709   0.170651  -0.026333
H  -2.732504  -1.320052  -0.807115
H  -2.656965  -1.251005   0.917375
C  -0.160780  -0.681199   0.051185
H  -1.400629   0.841166   0.801769
H  -1.433067   0.807188  -0.916650
H  -0.235679  -1.368236   1.008919
H   0.801273  -0.053103   0.022478
H  -0.109642  -1.300169  -0.802267
