14
butane_opt
C  -3.953777   0.251056   0.038864
C  -2.700574  -0.598563   0.005383
H  -4.888877  -0.371078   0.106959
H  -3.996416   0.835620  -0.801860
H  -3.914941   0.945430   0.917898
C  -1.406688   0.192024  -0.017175
H  -2.747588  -1.239550  -0.824672
H  -2.726362  -1.249604   0.920070
C  -0.151735  -0.705258   0.057770
H  -1.397361   0.870019   0.832302
H  -1.385537   0.880370  -0.964872
H  -0.125634  -1.296792   0.940004
H   0.741115  -0.123794   0.110620
H  -0.028072  -1.404550  -0.811121
