14
butane_opt
C  -3.935996   0.254939  -0.003592
C  -2.702619  -0.608541   0.061143
H  -4.866131  -0.381669  -0.049521
H  -3.908756   0.926850  -0.942571
H  -3.980533   0.884510   0.805258
C  -1.419870   0.208939   0.053428
H  -2.696953  -1.289313  -0.805794
H  -2.718692  -1.285933   0.972267
C  -0.152980  -0.703806  -0.000426
H  -1.345288   0.935381   0.953331
H  -1.424062   0.769048  -0.800892
H  -0.050622  -1.395693   0.950868
H   0.715578  -0.137546  -0.136632
H  -0.201986  -1.318589  -0.833830
