butane_opt
 OpenBabel08242015403D

 14 13  0  0  0  0  0  0  0  0999 V2000
   -3.9445    0.2591   -0.0110 C   0  0  0  0  0  0  0  0  0  0  0  0
   -2.7007   -0.6077    0.0726 C   0  0  0  0  0  0  0  0  0  0  0  0
   -4.8840   -0.3574   -0.0241 H   0  0  0  0  0  0  0  0  0  0  0  0
   -3.9445    0.8226   -0.8939 H   0  0  0  0  0  0  0  0  0  0  0  0
   -4.0156    1.0023    0.8802 H   0  0  0  0  0  0  0  0  0  0  0  0
   -1.4030    0.1855    0.0298 C   0  0  0  0  0  0  0  0  0  0  0  0
   -2.7124   -1.2304   -0.7472 H   0  0  0  0  0  0  0  0  0  0  0  0
   -2.7760   -1.2500    0.9874 H   0  0  0  0  0  0  0  0  0  0  0  0
   -0.1500   -0.7011    0.0074 C   0  0  0  0  0  0  0  0  0  0  0  0
   -1.3696    0.8953    0.8721 H   0  0  0  0  0  0  0  0  0  0  0  0
   -1.4171    0.7787   -0.8357 H   0  0  0  0  0  0  0  0  0  0  0  0
   -0.1234   -1.2990    0.9113 H   0  0  0  0  0  0  0  0  0  0  0  0
    0.7549   -0.1032   -0.0194 H   0  0  0  0  0  0  0  0  0  0  0  0
   -0.1472   -1.3711   -0.8681 H   0  0  0  0  0  0  0  0  0  0  0  0
  1  2  1  0  0  0  0
  1  5  1  0  0  0  0
  2  8  1  0  0  0  0
  3  1  1  0  0  0  0
  4  1  1  0  0  0  0
  6  2  1  0  0  0  0
  6 10  1  0  0  0  0
  7  2  1  0  0  0  0
  9  6  1  0  0  0  0
  9 12  1  0  0  0  0
 11  6  1  0  0  0  0
 13  9  1  0  0  0  0
 14  9  1  0  0  0  0
M  END
$$$$
