butane_opt
 OpenBabel08242015403D

 14 13  0  0  0  0  0  0  0  0999 V2000
   -3.9600    0.2752    0.0051 C   0  0  0  0  0  0  0  0  0  0  0  0
   -2.7045   -0.6323    0.0563 C   0  0  0  0  0  0  0  0  0  0  0  0
   -4.8732   -0.3092    0.0720 H   0  0  0  0  0  0  0  0  0  0  0  0
   -4.0165    0.9393   -0.9247 H   0  0  0  0  0  0  0  0  0  0  0  0
   -3.9169    0.9296    0.8837 H   0  0  0  0  0  0  0  0  0  0  0  0
   -1.3870    0.1730    0.0068 C   0  0  0  0  0  0  0  0  0  0  0  0
   -2.6858   -1.2569   -0.7601 H   0  0  0  0  0  0  0  0  0  0  0  0
   -2.7221   -1.2672    0.9837 H   0  0  0  0  0  0  0  0  0  0  0  0
   -0.1585   -0.6831    0.0201 C   0  0  0  0  0  0  0  0  0  0  0  0
   -1.3907    0.8568    0.8687 H   0  0  0  0  0  0  0  0  0  0  0  0
   -1.3678    0.7871   -0.8737 H   0  0  0  0  0  0  0  0  0  0  0  0
   -0.2038   -1.2066    0.8597 H   0  0  0  0  0  0  0  0  0  0  0  0
    0.7275   -0.0901    0.1703 H   0  0  0  0  0  0  0  0  0  0  0  0
   -0.0577   -1.4512   -0.9177 H   0  0  0  0  0  0  0  0  0  0  0  0
  1  2  1  0  0  0  0
  1  3  1  0  0  0  0
  1  5  1  0  0  0  0
  2  8  1  0  0  0  0
  4  1  1  0  0  0  0
  6  9  1  0  0  0  0
  6  2  1  0  0  0  0
  6 10  1  0  0  0  0
  7  2  1  0  0  0  0
  9 13  1  0  0  0  0
  9 12  1  0  0  0  0
 11  6  1  0  0  0  0
 14  9  1  0  0  0  0
M  END
$$$$
