14
butane_opt
C  -3.927617   0.257236  -0.005313
C  -2.698404  -0.603246   0.067203
H  -4.881102  -0.362136  -0.077641
H  -3.910497   0.814604  -0.847821
H  -3.935618   0.979244   0.876958
C  -1.420566   0.198343   0.033706
H  -2.678269  -1.314314  -0.792780
H  -2.756323  -1.261995   0.978760
C  -0.166650  -0.705595   0.010213
H  -1.393706   0.873407   0.865979
H  -1.388619   0.822864  -0.861297
H  -0.077621  -1.334542   0.923580
H   0.737986  -0.117768  -0.080167
H  -0.177488  -1.335204  -0.809986
