14
butane_opt
C  -3.939669   0.269392  -0.013252
C  -2.695448  -0.616734   0.081979
H  -4.835916  -0.305809  -0.022652
H  -3.952091   0.930992  -0.953401
H  -4.027852   0.951367   0.836373
C  -1.399001   0.162821   0.044377
H  -2.663333  -1.324180  -0.786068
H  -2.722039  -1.244108   0.965159
C  -0.168829  -0.684581  -0.003942
H  -1.344788   0.897333   0.908791
H  -1.421545   0.762805  -0.830199
H  -0.154730  -1.315167   0.895994
H   0.791711  -0.054540  -0.025645
H  -0.253255  -1.334883  -0.852378
