butane_opt
 OpenBabel08242015403D

 14 13  0  0  0  0  0  0  0  0999 V2000
   -3.9442    0.2540    0.0481 C   0  0  0  0  0  0  0  0  0  0  0  0
   -2.7146   -0.6013   -0.0115 C   0  0  0  0  0  0  0  0  0  0  0  0
   -4.8687   -0.3396    0.2039 H   0  0  0  0  0  0  0  0  0  0  0  0
   -4.0244    0.9237   -0.8813 H   0  0  0  0  0  0  0  0  0  0  0  0
   -3.9062    0.8328    0.8765 H   0  0  0  0  0  0  0  0  0  0  0  0
   -1.4055    0.2007   -0.0068 C   0  0  0  0  0  0  0  0  0  0  0  0
   -2.7694   -1.3595   -0.9204 H   0  0  0  0  0  0  0  0  0  0  0  0
   -2.6544   -1.2036    0.8854 H   0  0  0  0  0  0  0  0  0  0  0  0
   -0.1464   -0.7013    0.0617 C   0  0  0  0  0  0  0  0  0  0  0  0
   -1.3985    0.8562    0.8385 H   0  0  0  0  0  0  0  0  0  0  0  0
   -1.3755    0.8523   -0.9181 H   0  0  0  0  0  0  0  0  0  0  0  0
   -0.1187   -1.3635    0.9959 H   0  0  0  0  0  0  0  0  0  0  0  0
    0.6985   -0.1531    0.0360 H   0  0  0  0  0  0  0  0  0  0  0  0
   -0.0712   -1.3472   -0.7787 H   0  0  0  0  0  0  0  0  0  0  0  0
  1  3  1  0  0  0  0
  1  5  1  0  0  0  0
  2  6  1  0  0  0  0
  2  1  1  0  0  0  0
  2  8  1  0  0  0  0
  4  1  1  0  0  0  0
  6  9  1  0  0  0  0
  6 10  1  0  0  0  0
  7  2  1  0  0  0  0
  9 12  1  0  0  0  0
 11  6  1  0  0  0  0
 13  9  1  0  0  0  0
 14  9  1  0  0  0  0
M  END
$$$$
