14
butane_opt
C  -3.941603   0.277746   0.044583
C  -2.689728  -0.637914   0.016485
H  -4.855149  -0.316295   0.028586
H  -4.018016   0.884185  -0.834733
H  -3.923655   0.984224   0.946928
C  -1.393265   0.178524  -0.023916
H  -2.696547  -1.313429  -0.842891
H  -2.664232  -1.246337   0.902941
C  -0.179634  -0.680482   0.063404
H  -1.385078   0.758117   0.775260
H  -1.381806   0.879992  -0.954717
H  -0.235786  -1.227481   0.926350
H   0.731964  -0.112697   0.127418
H  -0.140686  -1.419755  -0.848343
