butane_opt
 OpenBabel08242015403D

 14 13  0  0  0  0  0  0  0  0999 V2000
   -3.9420    0.2715    0.0251 C   0  0  0  0  0  0  0  0  0  0  0  0
   -2.6865   -0.6246    0.0199 C   0  0  0  0  0  0  0  0  0  0  0  0
   -4.8204   -0.3044    0.1900 H   0  0  0  0  0  0  0  0  0  0  0  0
   -4.0542    0.9794   -0.9419 H   0  0  0  0  0  0  0  0  0  0  0  0
   -3.9250    0.8500    0.8258 H   0  0  0  0  0  0  0  0  0  0  0  0
   -1.3996    0.1724    0.0091 C   0  0  0  0  0  0  0  0  0  0  0  0
   -2.7613   -1.3195   -0.8383 H   0  0  0  0  0  0  0  0  0  0  0  0
   -2.6994   -1.2294    0.8706 H   0  0  0  0  0  0  0  0  0  0  0  0
   -0.1762   -0.6866    0.0396 C   0  0  0  0  0  0  0  0  0  0  0  0
   -1.3639    0.8960    0.9190 H   0  0  0  0  0  0  0  0  0  0  0  0
   -1.3961    0.8010   -0.8718 H   0  0  0  0  0  0  0  0  0  0  0  0
   -0.1850   -1.3026    0.9251 H   0  0  0  0  0  0  0  0  0  0  0  0
    0.7461   -0.0756    0.0311 H   0  0  0  0  0  0  0  0  0  0  0  0
   -0.1194   -1.3490   -0.8046 H   0  0  0  0  0  0  0  0  0  0  0  0
  1  3  1  0  0  0  0
  1  5  1  0  0  0  0
  2  1  1  0  0  0  0
  2  8  1  0  0  0  0
  4  1  1  0  0  0  0
  6  2  1  0  0  0  0
  6  9  1  0  0  0  0
  6 10  1  0  0  0  0
  7  2  1  0  0  0  0
  9 12  1  0  0  0  0
 11  6  1  0  0  0  0
 13  9  1  0  0  0  0
 14  9  1  0  0  0  0
M  END
$$$$
