14
butane_opt
C  -3.956876   0.271751  -0.006498
C  -2.698688  -0.623656   0.072307
H  -4.872253  -0.316322   0.000845
H  -4.009022   0.898413  -0.912989
H  -3.982049   0.930035   0.853412
C  -1.390990   0.187794   0.014859
H  -2.727532  -1.250449  -0.729963
H  -2.759971  -1.307626   0.997365
C  -0.150733  -0.694376   0.013302
H  -1.328004   0.855755   0.885526
H  -1.452263   0.764971  -0.826922
H  -0.185875  -1.215069   0.849106
H   0.767339  -0.071517   0.122827
H  -0.107593  -1.456588  -0.937841
