14
butane_opt
C  -3.937036   0.260413   0.038890
C  -2.689077  -0.606851   0.021081
H  -4.873735  -0.372820  -0.109002
H  -3.954904   0.732680  -0.794210
H  -3.951635   1.071672   1.004797
C  -1.414561   0.189626  -0.023586
H  -2.773634  -1.255391  -0.801435
H  -2.701314  -1.261630   0.927061
C  -0.160728  -0.704297   0.061325
H  -1.451494   0.847878   0.816996
H  -1.398661   0.827360  -0.926154
H  -0.124574  -1.353601   0.969077
H   0.790221  -0.071958  -0.038700
H  -0.165501  -1.299958  -0.770302
