butane_opt
 OpenBabel08242015403D

 14 13  0  0  0  0  0  0  0  0999 V2000
   -3.9575    0.2726    0.0171 C   0  0  0  0  0  0  0  0  0  0  0  0
   -2.6937   -0.6287    0.0465 C   0  0  0  0  0  0  0  0  0  0  0  0
   -4.8549   -0.3077    0.1159 H   0  0  0  0  0  0  0  0  0  0  0  0
   -3.9690    0.9576   -0.9254 H   0  0  0  0  0  0  0  0  0  0  0  0
   -4.0209    0.8626    0.8343 H   0  0  0  0  0  0  0  0  0  0  0  0
   -1.4031    0.1800    0.0089 C   0  0  0  0  0  0  0  0  0  0  0  0
   -2.6876   -1.3360   -0.8379 H   0  0  0  0  0  0  0  0  0  0  0  0
   -2.7339   -1.2576    0.9579 H   0  0  0  0  0  0  0  0  0  0  0  0
   -0.1536   -0.6777    0.0257 C   0  0  0  0  0  0  0  0  0  0  0  0
   -1.3535    0.8446    0.8738 H   0  0  0  0  0  0  0  0  0  0  0  0
   -1.3771    0.8201   -0.8798 H   0  0  0  0  0  0  0  0  0  0  0  0
   -0.1763   -1.2367    0.8658 H   0  0  0  0  0  0  0  0  0  0  0  0
    0.7239   -0.1248    0.1226 H   0  0  0  0  0  0  0  0  0  0  0  0
   -0.0797   -1.4473   -0.8756 H   0  0  0  0  0  0  0  0  0  0  0  0
  1  2  1  0  0  0  0
  1  3  1  0  0  0  0
  1  5  1  0  0  0  0
  2  8  1  0  0  0  0
  4  1  1  0  0  0  0
  6  9  1  0  0  0  0
  6  2  1  0  0  0  0
  6 10  1  0  0  0  0
  7  2  1  0  0  0  0
  9 13  1  0  0  0  0
  9 12  1  0  0  0  0
 11  6  1  0  0  0  0
 14  9  1  0  0  0  0
M  END
$$$$
