butane_opt
 OpenBabel08242015403D

 14 13  0  0  0  0  0  0  0  0999 V2000
   -3.9500    0.2742   -0.0077 C   0  0  0  0  0  0  0  0  0  0  0  0
   -2.6923   -0.6173    0.0658 C   0  0  0  0  0  0  0  0  0  0  0  0
   -4.8510   -0.3221    0.0647 H   0  0  0  0  0  0  0  0  0  0  0  0
   -3.9554    0.9318   -0.9103 H   0  0  0  0  0  0  0  0  0  0  0  0
   -3.9608    0.8595    0.8059 H   0  0  0  0  0  0  0  0  0  0  0  0
   -1.4048    0.1678    0.0247 C   0  0  0  0  0  0  0  0  0  0  0  0
   -2.6771   -1.2217   -0.7190 H   0  0  0  0  0  0  0  0  0  0  0  0
   -2.6926   -1.3302    1.0195 H   0  0  0  0  0  0  0  0  0  0  0  0
   -0.1741   -0.6899    0.0097 C   0  0  0  0  0  0  0  0  0  0  0  0
   -1.3756    0.8700    0.8945 H   0  0  0  0  0  0  0  0  0  0  0  0
   -1.3545    0.7988   -0.8383 H   0  0  0  0  0  0  0  0  0  0  0  0
   -0.1903   -1.1336    0.7994 H   0  0  0  0  0  0  0  0  0  0  0  0
    0.7647   -0.0513    0.1398 H   0  0  0  0  0  0  0  0  0  0  0  0
   -0.0847   -1.4926   -0.9562 H   0  0  0  0  0  0  0  0  0  0  0  0
  1  3  1  0  0  0  0
  1  2  1  0  0  0  0
  1  5  1  0  0  0  0
  2  8  1  0  0  0  0
  4  1  1  0  0  0  0
  6  2  1  0  0  0  0
  6 10  1  0  0  0  0
  7  2  1  0  0  0  0
  9  6  1  0  0  0  0
  9 13  1  0  0  0  0
  9 12  1  0  0  0  0
 11  6  1  0  0  0  0
 14  9  1  0  0  0  0
M  END
$$$$
