butane_opt
 OpenBabel08242015403D

 14 13  0  0  0  0  0  0  0  0999 V2000
   -3.9432    0.2626    0.0381 C   0  0  0  0  0  0  0  0  0  0  0  0
   -2.7070   -0.6171    0.0282 C   0  0  0  0  0  0  0  0  0  0  0  0
   -4.8748   -0.3379   -0.0553 H   0  0  0  0  0  0  0  0  0  0  0  0
   -3.9192    0.7455   -0.7831 H   0  0  0  0  0  0  0  0  0  0  0  0
   -4.0043    1.0458    0.9833 H   0  0  0  0  0  0  0  0  0  0  0  0
   -1.4043    0.1975   -0.0244 C   0  0  0  0  0  0  0  0  0  0  0  0
   -2.7586   -1.2776   -0.7985 H   0  0  0  0  0  0  0  0  0  0  0  0
   -2.7389   -1.2356    0.9007 H   0  0  0  0  0  0  0  0  0  0  0  0
   -0.1522   -0.6943    0.0459 C   0  0  0  0  0  0  0  0  0  0  0  0
   -1.3856    0.8538    0.8330 H   0  0  0  0  0  0  0  0  0  0  0  0
   -1.3495    0.8463   -0.9302 H   0  0  0  0  0  0  0  0  0  0  0  0
   -0.1715   -1.4079    0.9894 H   0  0  0  0  0  0  0  0  0  0  0  0
    0.7141   -0.1678    0.0555 H   0  0  0  0  0  0  0  0  0  0  0  0
   -0.0528   -1.3299   -0.7889 H   0  0  0  0  0  0  0  0  0  0  0  0
  1  5  1  0  0  0  0
  2  1  1  0  0  0  0
  2  8  1  0  0  0  0
  3  1  1  0  0  0  0
  4  1  1  0  0  0  0
  6  2  1  0  0  0  0
  6  9  1  0  0  0  0
  6 10  1  0  0  0  0
  7  2  1  0  0  0  0
  9 13  1  0  0  0  0
  9 12  1  0  0  0  0
 11  6  1  0  0  0  0
 14  9  1  0  0  0  0
M  END
$$$$
