14
butane_opt
C  -3.954800   0.275907  -0.015299
C  -2.696529  -0.642569   0.081367
H  -4.835453  -0.283324  -0.116536
H  -3.911834   0.850566  -0.866734
H  -4.080465   1.024798   0.867328
C  -1.399917   0.180520   0.038191
H  -2.733084  -1.277968  -0.716978
H  -2.734369  -1.310377   1.013685
C  -0.148990  -0.683423  -0.007472
H  -1.339591   0.872000   0.898449
H  -1.430158   0.796168  -0.830795
H  -0.128099  -1.280015   0.882427
H   0.740320  -0.106309   0.008464
H  -0.171152  -1.323277  -0.854273
