14
butane_opt
C  -3.961091   0.268769  -0.006830
C  -2.695685  -0.629182   0.062578
H  -4.813813  -0.290385   0.012519
H  -3.967398   0.848463  -0.890699
H  -4.038808   0.986678   0.884492
C  -1.395527   0.179736   0.025000
H  -2.720445  -1.263085  -0.760962
H  -2.721687  -1.318979   0.982917
C  -0.157227  -0.681679   0.014890
H  -1.371868   0.913500   0.888764
H  -1.423865   0.797413  -0.853803
H  -0.107386  -1.310167   0.917546
H   0.771342  -0.081256   0.007943
H  -0.126267  -1.399265  -0.890488
