14
butane_opt
C  -3.941285   0.257078   0.058327
C  -2.714818  -0.607611   0.013679
H  -4.876332  -0.373229   0.041119
H  -3.987249   0.888089  -0.818272
H  -3.953153   0.920171   0.912855
C  -1.401138   0.196708  -0.037684
H  -2.766461  -1.334023  -0.882685
H  -2.700142  -1.188673   0.875844
C  -0.148976  -0.699852   0.067496
H  -1.426675   0.857737   0.794669
H  -1.355330   0.867328  -0.989486
H  -0.149850  -1.305014   0.969891
H   0.702328  -0.142376   0.136149
H  -0.031742  -1.431768  -0.828327
