14
butane_opt
C  -3.945957   0.256934  -0.008451
C  -2.705459  -0.612726   0.070142
H  -4.830609  -0.297451  -0.044884
H  -3.898834   0.861444  -0.910607
H  -4.020942   0.886974   0.833520
C  -1.405257   0.199734   0.042985
H  -2.752305  -1.326195  -0.783600
H  -2.705292  -1.220920   0.938683
C  -0.149833  -0.695223   0.009318
H  -1.404629   0.887602   0.919168
H  -1.453462   0.813376  -0.824159
H  -0.060409  -1.359641   0.923364
H   0.745340  -0.145778  -0.134959
H  -0.170870  -1.349244  -0.850227
