butane_opt
 OpenBabel08242015403D

 14 13  0  0  0  0  0  0  0  0999 V2000
   -3.9332    0.2682    0.0003 C   0  0  0  0  0  0  0  0  0  0  0  0
   -2.6907   -0.6319    0.0566 C   0  0  0  0  0  0  0  0  0  0  0  0
   -4.8221   -0.3107    0.1319 H   0  0  0  0  0  0  0  0  0  0  0  0
   -3.9518    1.0136   -1.0033 H   0  0  0  0  0  0  0  0  0  0  0  0
   -3.9828    0.8238    0.7516 H   0  0  0  0  0  0  0  0  0  0  0  0
   -1.4170    0.1873    0.0467 C   0  0  0  0  0  0  0  0  0  0  0  0
   -2.7016   -1.3125   -0.7891 H   0  0  0  0  0  0  0  0  0  0  0  0
   -2.6921   -1.2145    0.9314 H   0  0  0  0  0  0  0  0  0  0  0  0
   -0.1632   -0.6876    0.0043 C   0  0  0  0  0  0  0  0  0  0  0  0
   -1.4117    0.8789    0.9163 H   0  0  0  0  0  0  0  0  0  0  0  0
   -1.3889    0.7703   -0.8253 H   0  0  0  0  0  0  0  0  0  0  0  0
   -0.1601   -1.2840    0.8882 H   0  0  0  0  0  0  0  0  0  0  0  0
    0.7434   -0.0624    0.0198 H   0  0  0  0  0  0  0  0  0  0  0  0
   -0.2074   -1.4036   -0.8931 H   0  0  0  0  0  0  0  0  0  0  0  0
  1  2  1  0  0  0  0
  1  3  1  0  0  0  0
  1  5  1  0  0  0  0
  2  8  1  0  0  0  0
  4  1  1  0  0  0  0
  6  2  1  0  0  0  0
  6 10  1  0  0  0  0
  7  2  1  0  0  0  0
  9 13  1  0  0  0  0
  9  6  1  0  0  0  0
  9 12  1  0  0  0  0
 11  6  1  0  0  0  0
 14  9  1  0  0  0  0
M  END
$$$$
