14
butane_opt
C  -3.942371   0.256859   0.029565
C  -2.699926  -0.597897   0.015999
H  -4.881006  -0.384980   0.032957
H  -3.914787   0.842908  -0.869276
H  -3.940531   0.980936   0.933764
C  -1.403271   0.184611   0.009304
H  -2.713444  -1.337011  -0.853071
H  -2.734270  -1.197677   0.884867
C  -0.164090  -0.697925   0.052815
H  -1.425264   0.871577   0.865687
H  -1.388468   0.827529  -0.904263
H  -0.027185  -1.426085   0.990844
H   0.718717  -0.130160  -0.160867
H  -0.200735  -1.263352  -0.754615
