14
butane_opt
C  -3.952177   0.271043   0.038527
C  -2.689765  -0.613134   0.010921
H  -4.857229  -0.326770   0.099534
H  -4.033843   0.886570  -0.860057
H  -3.885185   0.923588   0.916028
C  -1.399306   0.173794  -0.017808
H  -2.725825  -1.264523  -0.810181
H  -2.703831  -1.287030   0.914378
C  -0.164699  -0.686543   0.055597
H  -1.377528   0.803573   0.811356
H  -1.375927   0.803107  -0.893698
H  -0.237781  -1.245885   0.914582
H   0.738781  -0.099209   0.132662
H  -0.093993  -1.402511  -0.840891
