14
butane_opt
C  -3.954657   0.281320   0.000033
C  -2.703415  -0.640796   0.040651
H  -4.818093  -0.283801   0.143298
H  -4.077578   0.962877  -0.945800
H  -3.901124   0.843717   0.791918
C  -1.394863   0.182271   0.033889
H  -2.723557  -1.280197  -0.772436
H  -2.754952  -1.272080   0.949406
C  -0.156112  -0.687351   0.020174
H  -1.349687   0.897743   0.895007
H  -1.411914   0.775038  -0.819415
H  -0.112870  -1.254142   0.889643
H   0.781237  -0.091546   0.028872
H  -0.158250  -1.384202  -0.870488
