butane_opt
 OpenBabel08242015403D

 14 13  0  0  0  0  0  0  0  0999 V2000
   -3.9578    0.2813    0.0378 C   0  0  0  0  0  0  0  0  0  0  0  0
   -2.7037   -0.6366    0.0261 C   0  0  0  0  0  0  0  0  0  0  0  0
   -4.8616   -0.3138    0.0368 H   0  0  0  0  0  0  0  0  0  0  0  0
   -4.0017    0.8779   -0.8492 H   0  0  0  0  0  0  0  0  0  0  0  0
   -3.9697    0.9807    0.9225 H   0  0  0  0  0  0  0  0  0  0  0  0
   -1.3858    0.1756   -0.0190 C   0  0  0  0  0  0  0  0  0  0  0  0
   -2.7312   -1.3111   -0.8294 H   0  0  0  0  0  0  0  0  0  0  0  0
   -2.6834   -1.2890    0.9345 H   0  0  0  0  0  0  0  0  0  0  0  0
   -0.1655   -0.6876    0.0430 C   0  0  0  0  0  0  0  0  0  0  0  0
   -1.3988    0.8717    0.8461 H   0  0  0  0  0  0  0  0  0  0  0  0
   -1.3454    0.8047   -0.9403 H   0  0  0  0  0  0  0  0  0  0  0  0
   -0.2108   -1.2439    0.9416 H   0  0  0  0  0  0  0  0  0  0  0  0
    0.7418   -0.0896    0.1173 H   0  0  0  0  0  0  0  0  0  0  0  0
   -0.0177   -1.3498   -0.8013 H   0  0  0  0  0  0  0  0  0  0  0  0
  1  5  1  0  0  0  0
  2  1  1  0  0  0  0
  2  8  1  0  0  0  0
  3  1  1  0  0  0  0
  4  1  1  0  0  0  0
  6  2  1  0  0  0  0
  6  9  1  0  0  0  0
  6 10  1  0  0  0  0
  7  2  1  0  0  0  0
  9 13  1  0  0  0  0
  9 12  1  0  0  0  0
 11  6  1  0  0  0  0
 14  9  1  0  0  0  0
M  END
$$$$
