14
butane_opt
C  -3.934432   0.273304  -0.008614
C  -2.690471  -0.624708   0.075836
H  -4.872567  -0.352042  -0.055616
H  -3.954161   0.855813  -0.889942
H  -3.984922   0.960039   0.857249
C  -1.396391   0.184298   0.027065
H  -2.680258  -1.269028  -0.748224
H  -2.725921  -1.276655   1.000304
C  -0.179024  -0.693336   0.014238
H  -1.355402   0.845189   0.879956
H  -1.440042   0.830715  -0.877600
H  -0.143681  -1.222045   0.812906
H   0.731393  -0.106259   0.043522
H  -0.187449  -1.416832  -0.888384
