14
butane_opt
C  -3.939715   0.260233   0.044992
C  -2.706270  -0.619026  -0.005798
H  -4.880686  -0.336072   0.218733
H  -4.033645   0.940665  -0.869790
H  -3.896312   0.921080   0.916426
C  -1.403295   0.192426  -0.020520
H  -2.794121  -1.312426  -0.895691
H  -2.716428  -1.187248   0.866781
C  -0.157428  -0.699764   0.064397
H  -1.448437   0.874523   0.828643
H  -1.350847   0.799603  -0.906373
H  -0.123526  -1.333178   0.992535
H   0.760120  -0.114821   0.051247
H  -0.060787  -1.329922  -0.761199
