butane_opt
 OpenBabel08242015403D

 14 13  0  0  0  0  0  0  0  0999 V2000
   -3.9528    0.2664   -0.0072 C   0  0  0  0  0  0  0  0  0  0  0  0
   -2.7079   -0.6280    0.0714 C   0  0  0  0  0  0  0  0  0  0  0  0
   -4.8228   -0.2873   -0.0987 H   0  0  0  0  0  0  0  0  0  0  0  0
   -3.9046    0.8814   -0.9038 H   0  0  0  0  0  0  0  0  0  0  0  0
   -4.1043    0.9959    0.8932 H   0  0  0  0  0  0  0  0  0  0  0  0
   -1.3918    0.1836    0.0416 C   0  0  0  0  0  0  0  0  0  0  0  0
   -2.6957   -1.2831   -0.7645 H   0  0  0  0  0  0  0  0  0  0  0  0
   -2.7261   -1.2991    1.0003 H   0  0  0  0  0  0  0  0  0  0  0  0
   -0.1539   -0.6929    0.0062 C   0  0  0  0  0  0  0  0  0  0  0  0
   -1.3384    0.8749    0.8789 H   0  0  0  0  0  0  0  0  0  0  0  0
   -1.4082    0.8449   -0.8687 H   0  0  0  0  0  0  0  0  0  0  0  0
   -0.0955   -1.2772    0.8865 H   0  0  0  0  0  0  0  0  0  0  0  0
    0.7827   -0.1021   -0.0484 H   0  0  0  0  0  0  0  0  0  0  0  0
   -0.2278   -1.3689   -0.8712 H   0  0  0  0  0  0  0  0  0  0  0  0
  1  2  1  0  0  0  0
  1  5  1  0  0  0  0
  2  8  1  0  0  0  0
  3  1  1  0  0  0  0
  4  1  1  0  0  0  0
  6  2  1  0  0  0  0
  6 10  1  0  0  0  0
  7  2  1  0  0  0  0
  9  6  1  0  0  0  0
  9 12  1  0  0  0  0
 11  6  1  0  0  0  0
 13  9  1  0  0  0  0
 14  9  1  0  0  0  0
M  END
$$$$
