butane_opt
 OpenBabel08242015403D

 14 13  0  0  0  0  0  0  0  0999 V2000
   -3.9419    0.2747   -0.0020 C   0  0  0  0  0  0  0  0  0  0  0  0
   -2.6895   -0.6384    0.0653 C   0  0  0  0  0  0  0  0  0  0  0  0
   -4.8815   -0.3232   -0.0116 H   0  0  0  0  0  0  0  0  0  0  0  0
   -3.9631    0.9339   -0.9251 H   0  0  0  0  0  0  0  0  0  0  0  0
   -3.9655    0.9350    0.8527 H   0  0  0  0  0  0  0  0  0  0  0  0
   -1.4037    0.1801    0.0233 C   0  0  0  0  0  0  0  0  0  0  0  0
   -2.6923   -1.2100   -0.7270 H   0  0  0  0  0  0  0  0  0  0  0  0
   -2.6940   -1.3287    1.0194 H   0  0  0  0  0  0  0  0  0  0  0  0
   -0.1671   -0.6804    0.0084 C   0  0  0  0  0  0  0  0  0  0  0  0
   -1.4074    0.8643    0.8735 H   0  0  0  0  0  0  0  0  0  0  0  0
   -1.4072    0.7723   -0.8511 H   0  0  0  0  0  0  0  0  0  0  0  0
   -0.1855   -1.1703    0.8458 H   0  0  0  0  0  0  0  0  0  0  0  0
    0.7358   -0.1029    0.1168 H   0  0  0  0  0  0  0  0  0  0  0  0
   -0.1363   -1.4785   -0.9168 H   0  0  0  0  0  0  0  0  0  0  0  0
  1  2  1  0  0  0  0
  1  5  1  0  0  0  0
  2  8  1  0  0  0  0
  3  1  1  0  0  0  0
  4  1  1  0  0  0  0
  6  2  1  0  0  0  0
  6 10  1  0  0  0  0
  7  2  1  0  0  0  0
  9  6  1  0  0  0  0
  9 13  1  0  0  0  0
  9 12  1  0  0  0  0
 11  6  1  0  0  0  0
 14  9  1  0  0  0  0
M  END
$$$$
