14
butane_opt
C  -3.954835   0.275897   0.048552
C  -2.705330  -0.635940  -0.009258
H  -4.821961  -0.274935   0.200143
H  -4.060605   0.928635  -0.882932
H  -3.939532   0.885748   0.879072
C  -1.403343   0.181758  -0.011386
H  -2.730840  -1.383948  -0.897162
H  -2.652906  -1.240417   0.868330
C  -0.152797  -0.685530   0.073021
H  -1.405398   0.856257   0.815387
H  -1.348292   0.851189  -0.927467
H  -0.121908  -1.306705   0.955191
H   0.776368  -0.069606   0.012593
H  -0.131644  -1.340455  -0.797331
