14
butane_opt
C  -3.954133   0.270407   0.037558
C  -2.693426  -0.633332   0.017132
H  -4.841001  -0.289585  -0.000424
H  -3.985663   0.849564  -0.816325
H  -4.012465   1.010894   0.902168
C  -1.396047   0.188865   0.004003
H  -2.699621  -1.361674  -0.871399
H  -2.707489  -1.247091   0.868790
C  -0.156507  -0.686315   0.049890
H  -1.411668   0.818208   0.808749
H  -1.364371   0.829755  -0.902926
H  -0.098264  -1.393666   1.010185
H   0.749240  -0.098307  -0.080827
H  -0.248880  -1.260650  -0.760033
