butane_opt
 OpenBabel08242015403D

 14 13  0  0  0  0  0  0  0  0999 V2000
   -3.9470    0.2536    0.0492 C   0  0  0  0  0  0  0  0  0  0  0  0
   -2.7156   -0.6133    0.0082 C   0  0  0  0  0  0  0  0  0  0  0  0
   -4.8347   -0.2850   -0.0182 H   0  0  0  0  0  0  0  0  0  0  0  0
   -3.9927    0.8152   -0.8211 H   0  0  0  0  0  0  0  0  0  0  0  0
   -3.9785    0.9912    0.9345 H   0  0  0  0  0  0  0  0  0  0  0  0
   -1.3973    0.1997   -0.0210 C   0  0  0  0  0  0  0  0  0  0  0  0
   -2.7725   -1.3151   -0.8666 H   0  0  0  0  0  0  0  0  0  0  0  0
   -2.6722   -1.1915    0.8555 H   0  0  0  0  0  0  0  0  0  0  0  0
   -0.1527   -0.7021    0.0634 C   0  0  0  0  0  0  0  0  0  0  0  0
   -1.3699    0.8751    0.8266 H   0  0  0  0  0  0  0  0  0  0  0  0
   -1.3886    0.8150   -0.8817 H   0  0  0  0  0  0  0  0  0  0  0  0
   -0.0837   -1.4443    1.0315 H   0  0  0  0  0  0  0  0  0  0  0  0
    0.7517   -0.1027   -0.0816 H   0  0  0  0  0  0  0  0  0  0  0  0
   -0.1303   -1.2832   -0.7231 H   0  0  0  0  0  0  0  0  0  0  0  0
  1  5  1  0  0  0  0
  2  1  1  0  0  0  0
  2  8  1  0  0  0  0
  3  1  1  0  0  0  0
  4  1  1  0  0  0  0
  6  2  1  0  0  0  0
  6  9  1  0  0  0  0
  6 10  1  0  0  0  0
  7  2  1  0  0  0  0
  9 12  1  0  0  0  0
 11  6  1  0  0  0  0
 13  9  1  0  0  0  0
 14  9  1  0  0  0  0
M  END
$$$$
