butane_opt
 OpenBabel08242015403D

 14 13  0  0  0  0  0  0  0  0999 V2000
   -3.9589    0.2784   -0.0144 C   0  0  0  0  0  0  0  0  0  0  0  0
   -2.6994   -0.6200    0.0650 C   0  0  0  0  0  0  0  0  0  0  0  0
   -4.8830   -0.3370    0.0149 H   0  0  0  0  0  0  0  0  0  0  0  0
   -3.9929    0.8815   -0.9272 H   0  0  0  0  0  0  0  0  0  0  0  0
   -4.0074    0.9068    0.8144 H   0  0  0  0  0  0  0  0  0  0  0  0
   -1.4033    0.1730    0.0567 C   0  0  0  0  0  0  0  0  0  0  0  0
   -2.6665   -1.3233   -0.7996 H   0  0  0  0  0  0  0  0  0  0  0  0
   -2.7313   -1.2883    0.9771 H   0  0  0  0  0  0  0  0  0  0  0  0
   -0.1504   -0.6851    0.0037 C   0  0  0  0  0  0  0  0  0  0  0  0
   -1.3090    0.8486    0.9169 H   0  0  0  0  0  0  0  0  0  0  0  0
   -1.3947    0.8161   -0.8157 H   0  0  0  0  0  0  0  0  0  0  0  0
   -0.0820   -1.3093    0.8934 H   0  0  0  0  0  0  0  0  0  0  0  0
    0.7517   -0.0851   -0.1157 H   0  0  0  0  0  0  0  0  0  0  0  0
   -0.1642   -1.3345   -0.8524 H   0  0  0  0  0  0  0  0  0  0  0  0
  1  3  1  0  0  0  0
  1  2  1  0  0  0  0
  1  5  1  0  0  0  0
  2  8  1  0  0  0  0
  4  1  1  0  0  0  0
  6  2  1  0  0  0  0
  6 10  1  0  0  0  0
  7  2  1  0  0  0  0
  9  6  1  0  0  0  0
  9 12  1  0  0  0  0
 11  6  1  0  0  0  0
 13  9  1  0  0  0  0
 14  9  1  0  0  0  0
M  END
$$$$
