14
butane_opt
C  -3.927244   0.256108  -0.006842
C  -2.697064  -0.605676   0.061520
H  -4.859414  -0.347316   0.023987
H  -3.917607   0.924656  -0.962492
H  -3.962634   0.850160   0.805961
C  -1.409983   0.197846   0.043113
H  -2.716564  -1.274177  -0.795827
H  -2.754271  -1.247858   0.981952
C  -0.161684  -0.708686   0.001899
H  -1.383663   0.943686   0.975031
H  -1.433746   0.789203  -0.796621
H  -0.094964  -1.326379   0.913836
H   0.720087  -0.133096  -0.067700
H  -0.255794  -1.332405  -0.838583
