butane_opt
 OpenBabel08242015403D

 14 13  0  0  0  0  0  0  0  0999 V2000
   -3.9634    0.2718   -0.0010 C   0  0  0  0  0  0  0  0  0  0  0  0
   -2.6998   -0.6239    0.0578 C   0  0  0  0  0  0  0  0  0  0  0  0
   -4.8709   -0.3439    0.1366 H   0  0  0  0  0  0  0  0  0  0  0  0
   -3.9763    1.0294   -1.0043 H   0  0  0  0  0  0  0  0  0  0  0  0
   -3.9625    0.7799    0.7621 H   0  0  0  0  0  0  0  0  0  0  0  0
   -1.3972    0.1793    0.0419 C   0  0  0  0  0  0  0  0  0  0  0  0
   -2.6874   -1.3257   -0.8361 H   0  0  0  0  0  0  0  0  0  0  0  0
   -2.7315   -1.2174    0.9428 H   0  0  0  0  0  0  0  0  0  0  0  0
   -0.1473   -0.6869    0.0085 C   0  0  0  0  0  0  0  0  0  0  0  0
   -1.3569    0.9188    0.9511 H   0  0  0  0  0  0  0  0  0  0  0  0
   -1.4256    0.7959   -0.8233 H   0  0  0  0  0  0  0  0  0  0  0  0
   -0.0913   -1.2878    0.8906 H   0  0  0  0  0  0  0  0  0  0  0  0
    0.7528   -0.1211    0.0233 H   0  0  0  0  0  0  0  0  0  0  0  0
   -0.1821   -1.3845   -0.8991 H   0  0  0  0  0  0  0  0  0  0  0  0
  1  2  1  0  0  0  0
  1  3  1  0  0  0  0
  1  5  1  0  0  0  0
  2  8  1  0  0  0  0
  4  1  1  0  0  0  0
  6  2  1  0  0  0  0
  6 10  1  0  0  0  0
  7  2  1  0  0  0  0
  9 13  1  0  0  0  0
  9  6  1  0  0  0  0
  9 12  1  0  0  0  0
 11  6  1  0  0  0  0
 14  9  1  0  0  0  0
M  END
$$$$
