14
butane_opt
C  -3.948851   0.278176   0.049969
C  -2.696744  -0.636509  -0.004755
H  -4.868481  -0.311005   0.155609
H  -4.045007   0.975334  -0.872088
H  -3.920685   0.919043   0.899541
C  -1.400634   0.176925  -0.012216
H  -2.742722  -1.366962  -0.902957
H  -2.666904  -1.229638   0.876552
C  -0.163843  -0.683892   0.057143
H  -1.384451   0.867952   0.840745
H  -1.292529   0.792442  -0.919471
H  -0.229095  -1.338050   1.009837
H   0.751100  -0.095215   0.024565
H  -0.101963  -1.299843  -0.762928
