butane_opt
 OpenBabel08242015413D

 14 13  0  0  0  0  0  0  0  0999 V2000
   -3.9541    0.2513    0.0343 C   0  0  0  0  0  0  0  0  0  0  0  0
   -2.7032   -0.5998    0.0116 C   0  0  0  0  0  0  0  0  0  0  0  0
   -4.8965   -0.3865    0.0702 H   0  0  0  0  0  0  0  0  0  0  0  0
   -3.9721    0.8351   -0.8576 H   0  0  0  0  0  0  0  0  0  0  0  0
   -3.9486    0.9446    0.9238 H   0  0  0  0  0  0  0  0  0  0  0  0
   -1.4116    0.2008   -0.0062 C   0  0  0  0  0  0  0  0  0  0  0  0
   -2.7305   -1.3135   -0.8427 H   0  0  0  0  0  0  0  0  0  0  0  0
   -2.6829   -1.2022    0.8863 H   0  0  0  0  0  0  0  0  0  0  0  0
   -0.1426   -0.7079    0.0527 C   0  0  0  0  0  0  0  0  0  0  0  0
   -1.4050    0.9547    0.8854 H   0  0  0  0  0  0  0  0  0  0  0  0
   -1.3387    0.8103   -0.8900 H   0  0  0  0  0  0  0  0  0  0  0  0
   -0.1016   -1.4432    1.0250 H   0  0  0  0  0  0  0  0  0  0  0  0
    0.7478   -0.1451   -0.0897 H   0  0  0  0  0  0  0  0  0  0  0  0
   -0.1431   -1.2685   -0.7690 H   0  0  0  0  0  0  0  0  0  0  0  0
  1  3  1  0  0  0  0
  1  5  1  0  0  0  0
  2  1  1  0  0  0  0
  2  8  1  0  0  0  0
  4  1  1  0  0  0  0
  6  2  1  0  0  0  0
  6  9  1  0  0  0  0
  6 10  1  0  0  0  0
  7  2  1  0  0  0  0
  9 12  1  0  0  0  0
 11  6  1  0  0  0  0
 13  9  1  0  0  0  0
 14  9  1  0  0  0  0
M  END
$$$$
