14
butane_opt
C  -3.936009   0.261233  -0.006965
C  -2.704084  -0.607376   0.081997
H  -4.863108  -0.354075  -0.109065
H  -3.853722   0.770796  -0.864282
H  -3.958600   0.982159   0.881052
C  -1.409648   0.188456   0.025152
H  -2.711812  -1.257532  -0.771306
H  -2.708194  -1.219663   0.976633
C  -0.163850  -0.702518   0.009322
H  -1.370459   0.877538   0.869110
H  -1.467921   0.823380  -0.873477
H  -0.143669  -1.299634   0.912845
H   0.732993  -0.112635  -0.024723
H  -0.118850  -1.370010  -0.866278
