14
butane_opt
C  -3.931427   0.273045   0.015420
C  -2.693147  -0.624238   0.038842
H  -4.807054  -0.290346   0.097726
H  -3.999902   0.988420  -0.919870
H  -4.000304   0.866176   0.802645
C  -1.410821   0.167934   0.023755
H  -2.703430  -1.380760  -0.834001
H  -2.678995  -1.267275   0.938379
C  -0.172558  -0.679805   0.028981
H  -1.382362   0.853664   0.876075
H  -1.407231   0.792034  -0.862573
H  -0.158929  -1.247789   0.901631
H   0.750144  -0.059266  -0.001388
H  -0.147213  -1.358310  -0.857237
