14
butane_opt
C  -3.939800   0.273766   0.048128
C  -2.693700  -0.623517  -0.008092
H  -4.839134  -0.320590   0.223802
H  -4.063757   0.974092  -0.914236
H  -3.913186   0.901205   0.895026
C  -1.391860   0.165240  -0.012000
H  -2.698281  -1.336753  -0.867869
H  -2.725032  -1.203531   0.855571
C  -0.179283  -0.685326   0.058888
H  -1.406549   0.857039   0.847439
H  -1.385684   0.792724  -0.901643
H  -0.195683  -1.327186   0.973858
H   0.765848  -0.060963   0.068724
H  -0.110913  -1.298766  -0.779292
