14
butane_opt
C  -3.932392   0.249452   0.021555
C  -2.716615  -0.593366   0.018353
H  -4.834622  -0.339561   0.095356
H  -3.959589   0.818690  -0.841253
H  -3.900480   0.966994   0.923588
C  -1.411194   0.188177   0.013509
H  -2.700585  -1.317332  -0.864531
H  -2.732948  -1.188510   0.862694
C  -0.152144  -0.708699   0.043203
H  -1.428162   0.878388   0.877385
H  -1.383395   0.871712  -0.915078
H  -0.090175  -1.416409   1.023884
H   0.741788  -0.115819  -0.113613
H  -0.185084  -1.258554  -0.748779
