14
butane_opt
C  -3.928513   0.259909   0.000882
C  -2.702581  -0.611160   0.050936
H  -4.849863  -0.353072   0.079527
H  -3.962868   0.845461  -0.875562
H  -3.915604   0.930019   0.886139
C  -1.415836   0.192047   0.013591
H  -2.712006  -1.255314  -0.789192
H  -2.735372  -1.274432   0.972843
C  -0.163028  -0.703980   0.027796
H  -1.418623   0.908461   0.875638
H  -1.452751   0.840935  -0.897882
H  -0.143456  -1.253257   0.874916
H   0.769265  -0.098689   0.064981
H  -0.086902  -1.405326  -0.870788
