butane_opt
 OpenBabel08242015403D

 14 13  0  0  0  0  0  0  0  0999 V2000
   -3.9668    0.2796    0.0297 C   0  0  0  0  0  0  0  0  0  0  0  0
   -2.6950   -0.6268    0.0345 C   0  0  0  0  0  0  0  0  0  0  0  0
   -4.8435   -0.2894   -0.0798 H   0  0  0  0  0  0  0  0  0  0  0  0
   -3.8999    0.7965   -0.8149 H   0  0  0  0  0  0  0  0  0  0  0  0
   -4.0302    1.0001    0.9231 H   0  0  0  0  0  0  0  0  0  0  0  0
   -1.3931    0.1663    0.0034 C   0  0  0  0  0  0  0  0  0  0  0  0
   -2.7133   -1.3249   -0.8348 H   0  0  0  0  0  0  0  0  0  0  0  0
   -2.7215   -1.2301    0.9422 H   0  0  0  0  0  0  0  0  0  0  0  0
   -0.1618   -0.6794    0.0446 C   0  0  0  0  0  0  0  0  0  0  0  0
   -1.3635    0.8115    0.8217 H   0  0  0  0  0  0  0  0  0  0  0  0
   -1.3511    0.8370   -0.9264 H   0  0  0  0  0  0  0  0  0  0  0  0
   -0.1143   -1.3362    0.9658 H   0  0  0  0  0  0  0  0  0  0  0  0
    0.7570   -0.0864   -0.0737 H   0  0  0  0  0  0  0  0  0  0  0  0
   -0.1566   -1.3226   -0.8191 H   0  0  0  0  0  0  0  0  0  0  0  0
  1  2  1  0  0  0  0
  1  5  1  0  0  0  0
  2  8  1  0  0  0  0
  3  1  1  0  0  0  0
  4  1  1  0  0  0  0
  6  2  1  0  0  0  0
  6  9  1  0  0  0  0
  6 10  1  0  0  0  0
  7  2  1  0  0  0  0
  9 12  1  0  0  0  0
 11  6  1  0  0  0  0
 13  9  1  0  0  0  0
 14  9  1  0  0  0  0
M  END
$$$$
