14
butane_opt
C  -3.939310   0.280921   0.039601
C  -2.695933  -0.629893   0.010389
H  -4.838650  -0.303936   0.157781
H  -3.995579   0.923187  -0.853421
H  -3.926563   0.887971   0.879786
C  -1.407008   0.169746  -0.011920
H  -2.706030  -1.350752  -0.880679
H  -2.699270  -1.174264   0.859493
C  -0.172933  -0.690871   0.058199
H  -1.381642   0.832549   0.819664
H  -1.361277   0.798432  -0.915559
H  -0.175512  -1.288460   0.975047
H   0.796176  -0.029116   0.040328
H  -0.163267  -1.319034  -0.794362
