14
butane_opt
C  -3.941980   0.270904   0.000926
C  -2.704011  -0.621177   0.058517
H  -4.827449  -0.312766   0.062866
H  -3.978824   0.915302  -0.900025
H  -3.923062   0.922031   0.847049
C  -1.397447   0.166801   0.015414
H  -2.687596  -1.241307  -0.775306
H  -2.743575  -1.268106   0.978444
C  -0.165050  -0.688966   0.015968
H  -1.398201   0.879391   0.904246
H  -1.416120   0.808035  -0.865122
H  -0.208675  -1.209439   0.876680
H   0.749403  -0.064414   0.087713
H  -0.095684  -1.433605  -0.881527
