14
butane_opt
C  -3.952944   0.271072   0.023918
C  -2.697520  -0.627582   0.028404
H  -4.820747  -0.296000   0.061393
H  -4.030262   0.814331  -0.802277
H  -3.929596   0.975908   0.907467
C  -1.409468   0.183416  -0.015070
H  -2.724074  -1.282006  -0.815072
H  -2.665670  -1.279376   0.939817
C  -0.157562  -0.680462   0.050174
H  -1.358256   0.826227   0.838237
H  -1.352575   0.819923  -0.919980
H  -0.186205  -1.282143   0.929440
H   0.731881  -0.124419   0.092943
H  -0.083611  -1.400590  -0.843322
