butane_opt
 OpenBabel08242015413D

 14 13  0  0  0  0  0  0  0  0999 V2000
   -3.9330    0.2557   -0.0112 C   0  0  0  0  0  0  0  0  0  0  0  0
   -2.6992   -0.6058    0.0548 C   0  0  0  0  0  0  0  0  0  0  0  0
   -4.8430   -0.3598    0.1620 H   0  0  0  0  0  0  0  0  0  0  0  0
   -4.0048    0.9765   -0.9723 H   0  0  0  0  0  0  0  0  0  0  0  0
   -3.9132    0.7964    0.7522 H   0  0  0  0  0  0  0  0  0  0  0  0
   -1.4106    0.1924    0.0513 C   0  0  0  0  0  0  0  0  0  0  0  0
   -2.7147   -1.2771   -0.7823 H   0  0  0  0  0  0  0  0  0  0  0  0
   -2.7007   -1.1991    0.9400 H   0  0  0  0  0  0  0  0  0  0  0  0
   -0.1690   -0.7031    0.0083 C   0  0  0  0  0  0  0  0  0  0  0  0
   -1.3611    0.9043    0.9174 H   0  0  0  0  0  0  0  0  0  0  0  0
   -1.3758    0.8227   -0.8249 H   0  0  0  0  0  0  0  0  0  0  0  0
   -0.0604   -1.2776    0.8642 H   0  0  0  0  0  0  0  0  0  0  0  0
    0.7005   -0.1415    0.0200 H   0  0  0  0  0  0  0  0  0  0  0  0
   -0.1985   -1.3985   -0.8896 H   0  0  0  0  0  0  0  0  0  0  0  0
  1  2  1  0  0  0  0
  1  3  1  0  0  0  0
  1  5  1  0  0  0  0
  2  8  1  0  0  0  0
  4  1  1  0  0  0  0
  6  2  1  0  0  0  0
  6 10  1  0  0  0  0
  7  2  1  0  0  0  0
  9 13  1  0  0  0  0
  9  6  1  0  0  0  0
  9 12  1  0  0  0  0
 11  6  1  0  0  0  0
 14  9  1  0  0  0  0
M  END
$$$$
