14
butane_opt
C  -3.955934   0.279091  -0.020559
C  -2.691031  -0.627738   0.057968
H  -4.874247  -0.332376   0.054510
H  -3.956314   0.917099  -0.903207
H  -3.977084   0.927740   0.823448
C  -1.399009   0.167896   0.059151
H  -2.682222  -1.278694  -0.751734
H  -2.710460  -1.288969   0.965914
C  -0.161072  -0.681615  -0.003053
H  -1.346841   0.886118   0.933539
H  -1.419460   0.743881  -0.799968
H  -0.100175  -1.322060   0.913876
H   0.748551  -0.099880  -0.098309
H  -0.224084  -1.270572  -0.815323
