14
butane_opt
C  -3.936883   0.257960   0.039019
C  -2.708108  -0.612637   0.006067
H  -4.841394  -0.345181   0.054646
H  -4.016437   0.826601  -0.820799
H  -3.950655   0.969996   0.914729
C  -1.408041   0.207840  -0.000498
H  -2.797562  -1.336654  -0.916480
H  -2.695704  -1.202905   0.862155
C  -0.154739  -0.708363   0.063772
H  -1.406174   0.852410   0.829765
H  -1.336783   0.868870  -0.919364
H  -0.079271  -1.425554   1.018995
H   0.773596  -0.116346  -0.141918
H  -0.172972  -1.298753  -0.735219
