butane_opt
 OpenBabel08242015413D

 14 13  0  0  0  0  0  0  0  0999 V2000
   -3.9565    0.2731    0.0013 C   0  0  0  0  0  0  0  0  0  0  0  0
   -2.6873   -0.6229    0.0502 C   0  0  0  0  0  0  0  0  0  0  0  0
   -4.8710   -0.3130    0.1313 H   0  0  0  0  0  0  0  0  0  0  0  0
   -4.0077    0.9787   -0.9594 H   0  0  0  0  0  0  0  0  0  0  0  0
   -3.9284    0.8996    0.8125 H   0  0  0  0  0  0  0  0  0  0  0  0
   -1.3930    0.1691    0.0282 C   0  0  0  0  0  0  0  0  0  0  0  0
   -2.7346   -1.3031   -0.8233 H   0  0  0  0  0  0  0  0  0  0  0  0
   -2.6993   -1.2767    0.9704 H   0  0  0  0  0  0  0  0  0  0  0  0
   -0.1709   -0.6818    0.0254 C   0  0  0  0  0  0  0  0  0  0  0  0
   -1.3840    0.8452    0.8884 H   0  0  0  0  0  0  0  0  0  0  0  0
   -1.3516    0.8007   -0.8536 H   0  0  0  0  0  0  0  0  0  0  0  0
   -0.1499   -1.2225    0.8636 H   0  0  0  0  0  0  0  0  0  0  0  0
    0.7601   -0.0799    0.0300 H   0  0  0  0  0  0  0  0  0  0  0  0
   -0.1678   -1.4446   -0.9021 H   0  0  0  0  0  0  0  0  0  0  0  0
  1  2  1  0  0  0  0
  1  3  1  0  0  0  0
  1  5  1  0  0  0  0
  2  8  1  0  0  0  0
  4  1  1  0  0  0  0
  6  2  1  0  0  0  0
  6 10  1  0  0  0  0
  7  2  1  0  0  0  0
  9  6  1  0  0  0  0
  9 13  1  0  0  0  0
  9 12  1  0  0  0  0
 11  6  1  0  0  0  0
 14  9  1  0  0  0  0
M  END
$$$$
