14
butane_opt
C  -3.947766   0.252898  -0.001172
C  -2.707079  -0.609059   0.050771
H  -4.886191  -0.338847   0.019618
H  -3.965440   0.872713  -0.899680
H  -3.985872   0.958815   0.870753
C  -1.401682   0.197112   0.027451
H  -2.731035  -1.252343  -0.781742
H  -2.706687  -1.224163   0.964388
C  -0.155967  -0.704788   0.020042
H  -1.345240   0.905279   0.901343
H  -1.372583   0.770082  -0.828361
H  -0.045129  -1.358295   0.916240
H   0.733431  -0.138144  -0.059395
H  -0.157415  -1.309606  -0.822772
