14
butane_opt
C  -3.970589   0.278915  -0.006011
C  -2.693058  -0.625136   0.061155
H  -4.848082  -0.301397  -0.023172
H  -3.940679   0.901969  -0.932054
H  -4.058389   0.878024   0.802332
C  -1.387236   0.166758   0.053729
H  -2.703000  -1.311063  -0.793469
H  -2.695863  -1.249782   0.945523
C  -0.152898  -0.676964   0.004576
H  -1.326252   0.891922   0.917601
H  -1.429730   0.765453  -0.799789
H  -0.078070  -1.354430   0.939869
H   0.741427  -0.087964  -0.158533
H  -0.242348  -1.322232  -0.819383
