14
butane_opt
C  -3.950801   0.281511   0.016778
C  -2.685902  -0.622989   0.028788
H  -4.863796  -0.352729   0.150564
H  -4.053827   0.953270  -0.912954
H  -3.919229   0.884146   0.824527
C  -1.391539   0.165467   0.013756
H  -2.709444  -1.298905  -0.826233
H  -2.720317  -1.230396   0.936760
C  -0.175228  -0.681817   0.031224
H  -1.374312   0.854463   0.872315
H  -1.349748   0.738836  -0.844970
H  -0.160209  -1.302948   0.928051
H   0.749919  -0.069859   0.055408
H  -0.180468  -1.349577  -0.835156
