14
butane_opt
C  -3.950682   0.247774   0.021507
C  -2.706724  -0.600196   0.019248
H  -4.845188  -0.361314   0.199525
H  -4.062580   0.959928  -0.927886
H  -3.868654   0.862768   0.850765
C  -1.413062   0.201780   0.007360
H  -2.748058  -1.287913  -0.833147
H  -2.703761  -1.226944   0.889372
C  -0.138231  -0.706201   0.038146
H  -1.390453   0.901971   0.857111
H  -1.401553   0.790522  -0.856658
H  -0.126614  -1.320485   0.958460
H   0.762694  -0.120810   0.083891
H  -0.126843  -1.385934  -0.822011
