14
butane_opt
C  -3.931856   0.259367  -0.016274
C  -2.709887  -0.598874   0.066120
H  -4.838668  -0.345466  -0.022511
H  -3.883315   0.870935  -0.894663
H  -3.955703   0.919851   0.830757
C  -1.409694   0.189092   0.044624
H  -2.677122  -1.269375  -0.739321
H  -2.753370  -1.282551   1.010064
C  -0.162549  -0.706532   0.004152
H  -1.403361   0.902120   0.918219
H  -1.425237   0.745363  -0.789482
H  -0.032075  -1.315944   0.889917
H   0.752913  -0.082478  -0.091593
H  -0.243784  -1.324651  -0.851957
