14
butane_opt
C  -3.951218   0.260479   0.043547
C  -2.712872  -0.601296   0.018682
H  -4.883040  -0.377822   0.119318
H  -3.985688   0.868347  -0.854897
H  -3.949992   0.872976   0.868982
C  -1.402216   0.193598  -0.023184
H  -2.752759  -1.315625  -0.865654
H  -2.677562  -1.198251   0.885155
C  -0.144589  -0.700855   0.061833
H  -1.431686   0.848230   0.817771
H  -1.374757   0.835907  -0.950567
H  -0.135985  -1.253650   0.945903
H   0.746918  -0.135743   0.093135
H  -0.047627  -1.444274  -0.840250
