butane_opt
 OpenBabel08242015413D

 14 13  0  0  0  0  0  0  0  0999 V2000
   -3.9464    0.2604   -0.0110 C   0  0  0  0  0  0  0  0  0  0  0  0
   -2.7027   -0.6084    0.0550 C   0  0  0  0  0  0  0  0  0  0  0  0
   -4.8868   -0.3270    0.1983 H   0  0  0  0  0  0  0  0  0  0  0  0
   -3.9978    0.9833   -0.9575 H   0  0  0  0  0  0  0  0  0  0  0  0
   -3.9001    0.8161    0.8006 H   0  0  0  0  0  0  0  0  0  0  0  0
   -1.4007    0.1922    0.0434 C   0  0  0  0  0  0  0  0  0  0  0  0
   -2.6508   -1.3105   -0.8127 H   0  0  0  0  0  0  0  0  0  0  0  0
   -2.7201   -1.2214    0.9238 H   0  0  0  0  0  0  0  0  0  0  0  0
   -0.1621   -0.6968    0.0112 C   0  0  0  0  0  0  0  0  0  0  0  0
   -1.3783    0.8670    0.9066 H   0  0  0  0  0  0  0  0  0  0  0  0
   -1.3690    0.7873   -0.8341 H   0  0  0  0  0  0  0  0  0  0  0  0
   -0.1468   -1.3004    0.9009 H   0  0  0  0  0  0  0  0  0  0  0  0
    0.7487   -0.1002    0.0153 H   0  0  0  0  0  0  0  0  0  0  0  0
   -0.1752   -1.4347   -0.8967 H   0  0  0  0  0  0  0  0  0  0  0  0
  1  2  1  0  0  0  0
  1  3  1  0  0  0  0
  1  5  1  0  0  0  0
  2  8  1  0  0  0  0
  4  1  1  0  0  0  0
  6  2  1  0  0  0  0
  6 10  1  0  0  0  0
  7  2  1  0  0  0  0
  9 13  1  0  0  0  0
  9  6  1  0  0  0  0
  9 12  1  0  0  0  0
 11  6  1  0  0  0  0
 14  9  1  0  0  0  0
M  END
$$$$
