butane_opt
 OpenBabel08242015413D

 14 13  0  0  0  0  0  0  0  0999 V2000
   -3.9348    0.2556   -0.0102 C   0  0  0  0  0  0  0  0  0  0  0  0
   -2.7036   -0.5973    0.0575 C   0  0  0  0  0  0  0  0  0  0  0  0
   -4.8983   -0.3822    0.1745 H   0  0  0  0  0  0  0  0  0  0  0  0
   -3.9758    1.0091   -0.9865 H   0  0  0  0  0  0  0  0  0  0  0  0
   -3.8749    0.7717    0.7482 H   0  0  0  0  0  0  0  0  0  0  0  0
   -1.4084    0.1947    0.0496 C   0  0  0  0  0  0  0  0  0  0  0  0
   -2.7012   -1.2578   -0.7867 H   0  0  0  0  0  0  0  0  0  0  0  0
   -2.7389   -1.2093    0.9447 H   0  0  0  0  0  0  0  0  0  0  0  0
   -0.1693   -0.7057    0.0104 C   0  0  0  0  0  0  0  0  0  0  0  0
   -1.4087    0.8885    0.9154 H   0  0  0  0  0  0  0  0  0  0  0  0
   -1.3793    0.7715   -0.8345 H   0  0  0  0  0  0  0  0  0  0  0  0
   -0.0436   -1.2671    0.8585 H   0  0  0  0  0  0  0  0  0  0  0  0
    0.7573   -0.1115    0.0357 H   0  0  0  0  0  0  0  0  0  0  0  0
   -0.1693   -1.4551   -0.9365 H   0  0  0  0  0  0  0  0  0  0  0  0
  1  2  1  0  0  0  0
  1  3  1  0  0  0  0
  1  5  1  0  0  0  0
  2  8  1  0  0  0  0
  4  1  1  0  0  0  0
  6  2  1  0  0  0  0
  6 10  1  0  0  0  0
  7  2  1  0  0  0  0
  9 13  1  0  0  0  0
  9  6  1  0  0  0  0
  9 12  1  0  0  0  0
 11  6  1  0  0  0  0
 14  9  1  0  0  0  0
M  END
$$$$
