butane_opt
 OpenBabel08242015413D

 14 13  0  0  0  0  0  0  0  0999 V2000
   -3.9365    0.2518   -0.0069 C   0  0  0  0  0  0  0  0  0  0  0  0
   -2.6944   -0.5892    0.0594 C   0  0  0  0  0  0  0  0  0  0  0  0
   -4.8940   -0.3792    0.1833 H   0  0  0  0  0  0  0  0  0  0  0  0
   -3.9481    0.9990   -0.9676 H   0  0  0  0  0  0  0  0  0  0  0  0
   -3.9003    0.8070    0.7598 H   0  0  0  0  0  0  0  0  0  0  0  0
   -1.4033    0.1863    0.0390 C   0  0  0  0  0  0  0  0  0  0  0  0
   -2.7216   -1.3112   -0.8227 H   0  0  0  0  0  0  0  0  0  0  0  0
   -2.7564   -1.1995    0.9382 H   0  0  0  0  0  0  0  0  0  0  0  0
   -0.1723   -0.7087    0.0078 C   0  0  0  0  0  0  0  0  0  0  0  0
   -1.3642    0.8904    0.9349 H   0  0  0  0  0  0  0  0  0  0  0  0
   -1.4260    0.8138   -0.8415 H   0  0  0  0  0  0  0  0  0  0  0  0
   -0.1225   -1.2430    0.8581 H   0  0  0  0  0  0  0  0  0  0  0  0
    0.7255   -0.1298    0.0580 H   0  0  0  0  0  0  0  0  0  0  0  0
   -0.1306   -1.4050   -0.8630 H   0  0  0  0  0  0  0  0  0  0  0  0
  1  2  1  0  0  0  0
  1  3  1  0  0  0  0
  1  5  1  0  0  0  0
  2  8  1  0  0  0  0
  4  1  1  0  0  0  0
  6  2  1  0  0  0  0
  6 10  1  0  0  0  0
  7  2  1  0  0  0  0
  9  6  1  0  0  0  0
  9 13  1  0  0  0  0
  9 12  1  0  0  0  0
 11  6  1  0  0  0  0
 14  9  1  0  0  0  0
M  END
$$$$
