butane_opt
 OpenBabel08242015413D

 14 13  0  0  0  0  0  0  0  0999 V2000
   -3.9377    0.2661    0.0093 C   0  0  0  0  0  0  0  0  0  0  0  0
   -2.6847   -0.6163    0.0529 C   0  0  0  0  0  0  0  0  0  0  0  0
   -4.8349   -0.2779   -0.0831 H   0  0  0  0  0  0  0  0  0  0  0  0
   -3.9211    0.8068   -0.8389 H   0  0  0  0  0  0  0  0  0  0  0  0
   -4.0458    0.9797    0.8980 H   0  0  0  0  0  0  0  0  0  0  0  0
   -1.4104    0.1738    0.0180 C   0  0  0  0  0  0  0  0  0  0  0  0
   -2.6969   -1.3105   -0.7844 H   0  0  0  0  0  0  0  0  0  0  0  0
   -2.6868   -1.2757    0.9841 H   0  0  0  0  0  0  0  0  0  0  0  0
   -0.1807   -0.6877    0.0276 C   0  0  0  0  0  0  0  0  0  0  0  0
   -1.3644    0.8288    0.8405 H   0  0  0  0  0  0  0  0  0  0  0  0
   -1.3754    0.8663   -0.9046 H   0  0  0  0  0  0  0  0  0  0  0  0
   -0.0825   -1.2805    0.8972 H   0  0  0  0  0  0  0  0  0  0  0  0
    0.7552   -0.0659   -0.0084 H   0  0  0  0  0  0  0  0  0  0  0  0
   -0.2123   -1.3723   -0.8495 H   0  0  0  0  0  0  0  0  0  0  0  0
  1  2  1  0  0  0  0
  1  5  1  0  0  0  0
  2  8  1  0  0  0  0
  3  1  1  0  0  0  0
  4  1  1  0  0  0  0
  6  9  1  0  0  0  0
  6  2  1  0  0  0  0
  6 10  1  0  0  0  0
  7  2  1  0  0  0  0
  9 12  1  0  0  0  0
 11  6  1  0  0  0  0
 13  9  1  0  0  0  0
 14  9  1  0  0  0  0
M  END
$$$$
