butane_opt
 OpenBabel08242015413D

 14 13  0  0  0  0  0  0  0  0999 V2000
   -3.9446    0.2526    0.0281 C   0  0  0  0  0  0  0  0  0  0  0  0
   -2.7070   -0.6062    0.0298 C   0  0  0  0  0  0  0  0  0  0  0  0
   -4.8298   -0.3046   -0.0411 H   0  0  0  0  0  0  0  0  0  0  0  0
   -3.9009    0.7696   -0.8109 H   0  0  0  0  0  0  0  0  0  0  0  0
   -4.0218    1.0091    0.9068 H   0  0  0  0  0  0  0  0  0  0  0  0
   -1.4003    0.1966   -0.0042 C   0  0  0  0  0  0  0  0  0  0  0  0
   -2.7726   -1.2612   -0.8030 H   0  0  0  0  0  0  0  0  0  0  0  0
   -2.7126   -1.2848    0.9715 H   0  0  0  0  0  0  0  0  0  0  0  0
   -0.1540   -0.7018    0.0395 C   0  0  0  0  0  0  0  0  0  0  0  0
   -1.3950    0.8967    0.8465 H   0  0  0  0  0  0  0  0  0  0  0  0
   -1.4181    0.8486   -0.8923 H   0  0  0  0  0  0  0  0  0  0  0  0
   -0.1224   -1.3570    0.9612 H   0  0  0  0  0  0  0  0  0  0  0  0
    0.7357   -0.1335    0.0029 H   0  0  0  0  0  0  0  0  0  0  0  0
   -0.1135   -1.3566   -0.8064 H   0  0  0  0  0  0  0  0  0  0  0  0
  1  2  1  0  0  0  0
  1  5  1  0  0  0  0
  2  8  1  0  0  0  0
  3  1  1  0  0  0  0
  4  1  1  0  0  0  0
  6  2  1  0  0  0  0
  6  9  1  0  0  0  0
  6 10  1  0  0  0  0
  7  2  1  0  0  0  0
  9 12  1  0  0  0  0
 11  6  1  0  0  0  0
 13  9  1  0  0  0  0
 14  9  1  0  0  0  0
M  END
$$$$
