14
butane_opt
C  -3.946287   0.254921   0.043144
C  -2.713385  -0.609602   0.013207
H  -4.863381  -0.369287   0.088103
H  -4.005355   0.839347  -0.832061
H  -3.925985   0.939335   0.931180
C  -1.398710   0.211016  -0.036641
H  -2.743676  -1.230854  -0.796332
H  -2.671011  -1.255730   0.912307
C  -0.151677  -0.709426   0.064542
H  -1.389069   0.872146   0.812062
H  -1.362475   0.836967  -0.957743
H  -0.161263  -1.245194   0.919469
H   0.719158  -0.151344   0.184088
H  -0.087207  -1.481143  -0.836413
