butane_opt
 OpenBabel08242015413D

 14 13  0  0  0  0  0  0  0  0999 V2000
   -3.9484    0.2770    0.0323 C   0  0  0  0  0  0  0  0  0  0  0  0
   -2.6945   -0.6340    0.0361 C   0  0  0  0  0  0  0  0  0  0  0  0
   -4.8341   -0.2927   -0.1013 H   0  0  0  0  0  0  0  0  0  0  0  0
   -3.9441    0.7696   -0.7771 H   0  0  0  0  0  0  0  0  0  0  0  0
   -3.9894    1.0659    0.9680 H   0  0  0  0  0  0  0  0  0  0  0  0
   -1.4000    0.1809   -0.0128 C   0  0  0  0  0  0  0  0  0  0  0  0
   -2.6764   -1.3528   -0.8435 H   0  0  0  0  0  0  0  0  0  0  0  0
   -2.6535   -1.2549    0.8905 H   0  0  0  0  0  0  0  0  0  0  0  0
   -0.1748   -0.6842    0.0487 C   0  0  0  0  0  0  0  0  0  0  0  0
   -1.3516    0.8037    0.7934 H   0  0  0  0  0  0  0  0  0  0  0  0
   -1.4054    0.8130   -0.9124 H   0  0  0  0  0  0  0  0  0  0  0  0
   -0.1563   -1.3621    0.9989 H   0  0  0  0  0  0  0  0  0  0  0  0
    0.7441   -0.0800   -0.0299 H   0  0  0  0  0  0  0  0  0  0  0  0
   -0.1511   -1.2511   -0.7761 H   0  0  0  0  0  0  0  0  0  0  0  0
  1  2  1  0  0  0  0
  1  5  1  0  0  0  0
  2  8  1  0  0  0  0
  3  1  1  0  0  0  0
  4  1  1  0  0  0  0
  6  2  1  0  0  0  0
  6  9  1  0  0  0  0
  6 10  1  0  0  0  0
  7  2  1  0  0  0  0
  9 12  1  0  0  0  0
 11  6  1  0  0  0  0
 13  9  1  0  0  0  0
 14  9  1  0  0  0  0
M  END
$$$$
