butane_opt
 OpenBabel08242015413D

 14 13  0  0  0  0  0  0  0  0999 V2000
   -3.9487    0.2552   -0.0187 C   0  0  0  0  0  0  0  0  0  0  0  0
   -2.7062   -0.6092    0.0696 C   0  0  0  0  0  0  0  0  0  0  0  0
   -4.8644   -0.3537    0.0142 H   0  0  0  0  0  0  0  0  0  0  0  0
   -3.9502    0.9336   -0.9515 H   0  0  0  0  0  0  0  0  0  0  0  0
   -4.0173    0.8934    0.7901 H   0  0  0  0  0  0  0  0  0  0  0  0
   -1.4052    0.1965    0.0621 C   0  0  0  0  0  0  0  0  0  0  0  0
   -2.6853   -1.3100   -0.8145 H   0  0  0  0  0  0  0  0  0  0  0  0
   -2.7246   -1.2396    0.9839 H   0  0  0  0  0  0  0  0  0  0  0  0
   -0.1532   -0.6985   -0.0000 C   0  0  0  0  0  0  0  0  0  0  0  0
   -1.3224    0.9015    0.9473 H   0  0  0  0  0  0  0  0  0  0  0  0
   -1.4591    0.7798   -0.7775 H   0  0  0  0  0  0  0  0  0  0  0  0
   -0.0099   -1.3674    0.9119 H   0  0  0  0  0  0  0  0  0  0  0  0
    0.7361   -0.1136   -0.1721 H   0  0  0  0  0  0  0  0  0  0  0  0
   -0.1630   -1.3249   -0.8466 H   0  0  0  0  0  0  0  0  0  0  0  0
  1  3  1  0  0  0  0
  1  2  1  0  0  0  0
  1  5  1  0  0  0  0
  2  8  1  0  0  0  0
  4  1  1  0  0  0  0
  6  2  1  0  0  0  0
  6 10  1  0  0  0  0
  7  2  1  0  0  0  0
  9  6  1  0  0  0  0
  9 12  1  0  0  0  0
 11  6  1  0  0  0  0
 13  9  1  0  0  0  0
 14  9  1  0  0  0  0
M  END
$$$$
