14
butane_opt
C  -3.958753   0.272960   0.008351
C  -2.701183  -0.627531   0.062548
H  -4.864472  -0.325499  -0.073145
H  -3.952428   0.896606  -0.900966
H  -4.050281   0.941220   0.887854
C  -1.394055   0.186558   0.018644
H  -2.746832  -1.315417  -0.777402
H  -2.682764  -1.269983   0.950426
C  -0.150919  -0.692339   0.017490
H  -1.391686   0.822307   0.860921
H  -1.429818   0.822910  -0.858278
H  -0.126687  -1.269542   0.888852
H   0.795903  -0.057245   0.037024
H  -0.121355  -1.383642  -0.869792
