14
butane_opt
C  -3.951780   0.259169  -0.002480
C  -2.712831  -0.600678   0.069338
H  -4.883467  -0.358351   0.032005
H  -3.923248   0.810358  -0.879918
H  -3.962851   0.922667   0.845305
C  -1.403071   0.195869   0.013091
H  -2.756594  -1.238117  -0.777954
H  -2.726144  -1.245402   0.988738
C  -0.151546  -0.703290   0.015563
H  -1.339073   0.883998   0.857055
H  -1.417719   0.802795  -0.871509
H  -0.118360  -1.265047   0.877878
H   0.760150  -0.139489   0.113176
H  -0.028963  -1.464993  -0.892023
