14
butane_opt
C  -3.930014   0.256065  -0.013559
C  -2.708651  -0.600891   0.071284
H  -4.895153  -0.359943   0.036774
H  -3.879688   0.915541  -0.965960
H  -3.969144   0.878511   0.798171
C  -1.408652   0.197527   0.059638
H  -2.670300  -1.323200  -0.815328
H  -2.784059  -1.220895   0.952540
C  -0.152931  -0.704219  -0.004268
H  -1.380436   0.888445   0.945459
H  -1.479990   0.796217  -0.816181
H  -0.091522  -1.368673   0.928731
H   0.740024  -0.129449  -0.116370
H  -0.206142  -1.331224  -0.856987
