butane_opt
 OpenBabel08242015413D

 14 13  0  0  0  0  0  0  0  0999 V2000
   -3.9359    0.2572    0.0333 C   0  0  0  0  0  0  0  0  0  0  0  0
   -2.7069   -0.6024    0.0035 C   0  0  0  0  0  0  0  0  0  0  0  0
   -4.8658   -0.3589    0.1609 H   0  0  0  0  0  0  0  0  0  0  0  0
   -4.0134    0.9078   -0.8795 H   0  0  0  0  0  0  0  0  0  0  0  0
   -3.8552    0.8632    0.8624 H   0  0  0  0  0  0  0  0  0  0  0  0
   -1.4033    0.2040    0.0002 C   0  0  0  0  0  0  0  0  0  0  0  0
   -2.7367   -1.2682   -0.8316 H   0  0  0  0  0  0  0  0  0  0  0  0
   -2.6587   -1.2676    0.9280 H   0  0  0  0  0  0  0  0  0  0  0  0
   -0.1692   -0.7108    0.0490 C   0  0  0  0  0  0  0  0  0  0  0  0
   -1.4065    0.8583    0.8416 H   0  0  0  0  0  0  0  0  0  0  0  0
   -1.3696    0.7993   -0.8773 H   0  0  0  0  0  0  0  0  0  0  0  0
   -0.1399   -1.3095    0.9188 H   0  0  0  0  0  0  0  0  0  0  0  0
    0.7148   -0.1106    0.0915 H   0  0  0  0  0  0  0  0  0  0  0  0
   -0.1041   -1.3629   -0.8150 H   0  0  0  0  0  0  0  0  0  0  0  0
  1  3  1  0  0  0  0
  1  5  1  0  0  0  0
  2  1  1  0  0  0  0
  2  8  1  0  0  0  0
  4  1  1  0  0  0  0
  6  2  1  0  0  0  0
  6  9  1  0  0  0  0
  6 10  1  0  0  0  0
  7  2  1  0  0  0  0
  9 13  1  0  0  0  0
  9 12  1  0  0  0  0
 11  6  1  0  0  0  0
 14  9  1  0  0  0  0
M  END
$$$$
