14
butane_opt
C  -3.952329   0.261968   0.032982
C  -2.702705  -0.616709   0.044096
H  -4.870018  -0.305531  -0.117246
H  -3.937277   0.724968  -0.780116
H  -3.978005   1.028018   0.943516
C  -1.408551   0.201617  -0.011848
H  -2.711209  -1.326993  -0.840221
H  -2.704654  -1.217721   0.894965
C  -0.157278  -0.699394   0.043485
H  -1.365143   0.797339   0.793976
H  -1.370998   0.857145  -0.942674
H  -0.107774  -1.356439   0.973906
H   0.744356  -0.121869   0.006790
H  -0.077693  -1.321350  -0.780771
