14
butane_opt
C  -3.966322   0.276521   0.038717
C  -2.694642  -0.629743   0.025533
H  -4.848250  -0.285938  -0.049710
H  -3.974710   0.769768  -0.771903
H  -4.032723   1.055084   0.958605
C  -1.389431   0.170534  -0.026410
H  -2.695529  -1.324520  -0.829074
H  -2.711323  -1.287083   0.915042
C  -0.162082  -0.680083   0.058280
H  -1.404012   0.860906   0.832811
H  -1.375926   0.824478  -0.930018
H  -0.124024  -1.343345   0.971434
H   0.793116  -0.077838  -0.005872
H  -0.113910  -1.300998  -0.785825
