14
butane_opt
C  -3.938873   0.253617   0.003159
C  -2.695690  -0.595601   0.072534
H  -4.884518  -0.378351   0.063999
H  -3.899308   0.891715  -0.935717
H  -3.994451   0.861090   0.811400
C  -1.414784   0.193275   0.012920
H  -2.727378  -1.287449  -0.774923
H  -2.690976  -1.221370   0.968459
C  -0.156877  -0.706198   0.017464
H  -1.407593   0.889739   0.881045
H  -1.376123   0.835784  -0.905619
H  -0.182652  -1.188245   0.825804
H   0.744444  -0.133411   0.144175
H  -0.118224  -1.493940  -0.928572
