14
butane_opt
C  -3.949044   0.253301  -0.000458
C  -2.696188  -0.599088   0.062608
H  -4.883505  -0.355580   0.086105
H  -3.968783   0.906399  -0.933277
H  -3.933749   0.878454   0.860546
C  -1.411925   0.190929   0.018553
H  -2.703264  -1.299713  -0.780320
H  -2.739972  -1.235833   0.984541
C  -0.154547  -0.706954   0.017343
H  -1.389637   0.857307   0.853949
H  -1.398223   0.879058  -0.902873
H  -0.143357  -1.176992   0.808249
H   0.773578  -0.111724   0.160626
H  -0.089246  -1.474172  -0.887917
