14
butane_opt
C  -3.940004   0.266491   0.011566
C  -2.697468  -0.621275   0.044504
H  -4.816232  -0.297336   0.143477
H  -3.993311   1.012142  -0.989111
H  -3.921484   0.844868   0.800831
C  -1.411462   0.167930   0.029033
H  -2.642664  -1.306182  -0.789881
H  -2.711653  -1.222560   0.889452
C  -0.166878  -0.683491   0.017106
H  -1.374029   0.857640   0.903634
H  -1.430648   0.801257  -0.854932
H  -0.158821  -1.265458   0.890842
H   0.774796  -0.042121   0.083194
H  -0.170795  -1.398389  -0.870970
