butane_opt
 OpenBabel08242015413D

 14 13  0  0  0  0  0  0  0  0999 V2000
   -3.9280    0.2578   -0.0001 C   0  0  0  0  0  0  0  0  0  0  0  0
   -2.6959   -0.6124    0.0750 C   0  0  0  0  0  0  0  0  0  0  0  0
   -4.8783   -0.3642   -0.0563 H   0  0  0  0  0  0  0  0  0  0  0  0
   -3.9261    0.8544   -0.8926 H   0  0  0  0  0  0  0  0  0  0  0  0
   -3.9821    0.8995    0.8175 H   0  0  0  0  0  0  0  0  0  0  0  0
   -1.4087    0.2028    0.0354 C   0  0  0  0  0  0  0  0  0  0  0  0
   -2.6786   -1.2828   -0.7726 H   0  0  0  0  0  0  0  0  0  0  0  0
   -2.7304   -1.2206    0.9469 H   0  0  0  0  0  0  0  0  0  0  0  0
   -0.1697   -0.7036    0.0023 C   0  0  0  0  0  0  0  0  0  0  0  0
   -1.4179    0.8716    0.8782 H   0  0  0  0  0  0  0  0  0  0  0  0
   -1.4419    0.8458   -0.8834 H   0  0  0  0  0  0  0  0  0  0  0  0
   -0.1382   -1.2910    0.9023 H   0  0  0  0  0  0  0  0  0  0  0  0
    0.7222   -0.1388    0.0291 H   0  0  0  0  0  0  0  0  0  0  0  0
   -0.1198   -1.3939   -0.8841 H   0  0  0  0  0  0  0  0  0  0  0  0
  1  2  1  0  0  0  0
  1  5  1  0  0  0  0
  2  8  1  0  0  0  0
  3  1  1  0  0  0  0
  4  1  1  0  0  0  0
  6  2  1  0  0  0  0
  6 10  1  0  0  0  0
  7  2  1  0  0  0  0
  9 13  1  0  0  0  0
  9  6  1  0  0  0  0
  9 12  1  0  0  0  0
 11  6  1  0  0  0  0
 14  9  1  0  0  0  0
M  END
$$$$
