14
butane_opt
C  -3.952430   0.250578   0.045808
C  -2.706061  -0.603801   0.003976
H  -4.875449  -0.353892  -0.027573
H  -3.954953   0.785628  -0.793203
H  -3.982208   1.000203   0.960953
C  -1.405701   0.208365  -0.005850
H  -2.737262  -1.305690  -0.868667
H  -2.752194  -1.198148   0.869192
C  -0.133194  -0.709081   0.056325
H  -1.445350   0.802505   0.819751
H  -1.396519   0.866704  -0.923417
H  -0.052434  -1.431173   1.011662
H   0.755995  -0.139441  -0.084485
H  -0.204730  -1.250216  -0.702266
