butane_opt
 OpenBabel08242015413D

 14 13  0  0  0  0  0  0  0  0999 V2000
   -3.9456    0.2530   -0.0082 C   0  0  0  0  0  0  0  0  0  0  0  0
   -2.7095   -0.6087    0.0576 C   0  0  0  0  0  0  0  0  0  0  0  0
   -4.8569   -0.3340    0.1623 H   0  0  0  0  0  0  0  0  0  0  0  0
   -3.9686    0.9966   -0.9588 H   0  0  0  0  0  0  0  0  0  0  0  0
   -3.9764    0.7934    0.7541 H   0  0  0  0  0  0  0  0  0  0  0  0
   -1.4046    0.2029    0.0499 C   0  0  0  0  0  0  0  0  0  0  0  0
   -2.7110   -1.3165   -0.8186 H   0  0  0  0  0  0  0  0  0  0  0  0
   -2.7582   -1.2078    0.9427 H   0  0  0  0  0  0  0  0  0  0  0  0
   -0.1440   -0.7015    0.0036 C   0  0  0  0  0  0  0  0  0  0  0  0
   -1.4012    0.8658    0.9161 H   0  0  0  0  0  0  0  0  0  0  0  0
   -1.4611    0.7966   -0.8068 H   0  0  0  0  0  0  0  0  0  0  0  0
   -0.0817   -1.2872    0.8677 H   0  0  0  0  0  0  0  0  0  0  0  0
    0.7325   -0.1376    0.0078 H   0  0  0  0  0  0  0  0  0  0  0  0
   -0.0952   -1.3875   -0.8703 H   0  0  0  0  0  0  0  0  0  0  0  0
  1  2  1  0  0  0  0
  1  3  1  0  0  0  0
  1  5  1  0  0  0  0
  2  8  1  0  0  0  0
  4  1  1  0  0  0  0
  6  2  1  0  0  0  0
  6 10  1  0  0  0  0
  7  2  1  0  0  0  0
  9 13  1  0  0  0  0
  9  6  1  0  0  0  0
  9 12  1  0  0  0  0
 11  6  1  0  0  0  0
 14  9  1  0  0  0  0
M  END
$$$$
