14
butane_opt
C  -3.949081   0.260899   0.014233
C  -2.699098  -0.622552   0.038335
H  -4.858052  -0.337640   0.097938
H  -3.992512   0.961075  -0.926168
H  -3.961112   0.847803   0.831421
C  -1.409554   0.200143   0.021719
H  -2.700111  -1.281133  -0.788891
H  -2.698900  -1.244523   0.887032
C  -0.152558  -0.693985   0.021430
H  -1.324080   0.895688   0.897082
H  -1.413280   0.809816  -0.855321
H  -0.134236  -1.327381   0.918988
H   0.729199  -0.134368   0.062155
H  -0.141447  -1.396948  -0.835288
