butane_opt
 OpenBabel08242015413D

 14 13  0  0  0  0  0  0  0  0999 V2000
   -3.9391    0.2517    0.0242 C   0  0  0  0  0  0  0  0  0  0  0  0
   -2.7018   -0.5922    0.0195 C   0  0  0  0  0  0  0  0  0  0  0  0
   -4.8778   -0.3749    0.0619 H   0  0  0  0  0  0  0  0  0  0  0  0
   -3.9399    0.7861   -0.8201 H   0  0  0  0  0  0  0  0  0  0  0  0
   -3.9176    0.9619    0.9167 H   0  0  0  0  0  0  0  0  0  0  0  0
   -1.4124    0.1961    0.0105 C   0  0  0  0  0  0  0  0  0  0  0  0
   -2.6799   -1.3584   -0.8968 H   0  0  0  0  0  0  0  0  0  0  0  0
   -2.6842   -1.1801    0.8772 H   0  0  0  0  0  0  0  0  0  0  0  0
   -0.1580   -0.7073    0.0482 C   0  0  0  0  0  0  0  0  0  0  0  0
   -1.4140    0.8652    0.8450 H   0  0  0  0  0  0  0  0  0  0  0  0
   -1.3988    0.8687   -0.8874 H   0  0  0  0  0  0  0  0  0  0  0  0
   -0.0886   -1.4672    1.0447 H   0  0  0  0  0  0  0  0  0  0  0  0
    0.7381   -0.1183   -0.1382 H   0  0  0  0  0  0  0  0  0  0  0  0
   -0.2136   -1.2416   -0.7675 H   0  0  0  0  0  0  0  0  0  0  0  0
  1  3  1  0  0  0  0
  1  5  1  0  0  0  0
  2  1  1  0  0  0  0
  2  8  1  0  0  0  0
  4  1  1  0  0  0  0
  6  2  1  0  0  0  0
  6  9  1  0  0  0  0
  6 10  1  0  0  0  0
  7  2  1  0  0  0  0
  9 12  1  0  0  0  0
 11  6  1  0  0  0  0
 13  9  1  0  0  0  0
 14  9  1  0  0  0  0
M  END
$$$$
