14
butane_opt
C  -3.954237   0.276333   0.032600
C  -2.695933  -0.638803   0.036912
H  -4.829645  -0.279507  -0.082618
H  -3.960926   0.782840  -0.776642
H  -4.074458   1.054896   0.970800
C  -1.393301   0.181420  -0.016699
H  -2.801569  -1.333908  -0.852651
H  -2.691655  -1.222396   0.916583
C  -0.158629  -0.687019   0.052644
H  -1.367634   0.828529   0.795392
H  -1.369065   0.867153  -0.965783
H  -0.161451  -1.332027   0.979904
H   0.790809  -0.075656   0.002077
H  -0.137095  -1.344643  -0.801161
