14
butane_opt
C  -3.950122   0.265132   0.038977
C  -2.701455  -0.624264   0.002716
H  -4.845474  -0.274777   0.149148
H  -4.031306   0.910790  -0.849786
H  -3.939797   0.946412   0.934133
C  -1.397949   0.187577  -0.017823
H  -2.783840  -1.299818  -0.845680
H  -2.741237  -1.268415   0.882692
C  -0.150589  -0.688490   0.060049
H  -1.447303   0.859285   0.825597
H  -1.315594   0.777422  -0.885884
H  -0.143484  -1.328775   0.976597
H   0.743263  -0.114395   0.039013
H  -0.121685  -1.351189  -0.795031
