14
butane_opt
C  -3.966658   0.263775   0.040106
C  -2.692672  -0.617098  -0.001395
H  -4.848900  -0.305487   0.160008
H  -4.049404   0.962102  -0.886523
H  -3.912608   0.863481   0.868425
C  -1.395413   0.175831  -0.005463
H  -2.722315  -1.282764  -0.821372
H  -2.711008  -1.242516   0.883827
C  -0.151457  -0.687973   0.051329
H  -1.416257   0.881345   0.877920
H  -1.365121   0.790172  -0.878579
H  -0.136544  -1.322282   0.961004
H   0.741746  -0.084490   0.056049
H  -0.133439  -1.341412  -0.802924
