butane_opt
 OpenBabel08242015413D

 14 13  0  0  0  0  0  0  0  0999 V2000
   -3.9626    0.2838    0.0349 C   0  0  0  0  0  0  0  0  0  0  0  0
   -2.6946   -0.6318    0.0077 C   0  0  0  0  0  0  0  0  0  0  0  0
   -4.8956   -0.3297    0.0368 H   0  0  0  0  0  0  0  0  0  0  0  0
   -4.0404    0.8059   -0.7907 H   0  0  0  0  0  0  0  0  0  0  0  0
   -3.9396    1.0126    0.9359 H   0  0  0  0  0  0  0  0  0  0  0  0
   -1.3901    0.1743   -0.0009 C   0  0  0  0  0  0  0  0  0  0  0  0
   -2.7061   -1.3323   -0.8496 H   0  0  0  0  0  0  0  0  0  0  0  0
   -2.7298   -1.2439    0.8590 H   0  0  0  0  0  0  0  0  0  0  0  0
   -0.1559   -0.6880    0.0498 C   0  0  0  0  0  0  0  0  0  0  0  0
   -1.4034    0.8338    0.8432 H   0  0  0  0  0  0  0  0  0  0  0  0
   -1.3242    0.8122   -0.8977 H   0  0  0  0  0  0  0  0  0  0  0  0
   -0.1047   -1.4224    1.0105 H   0  0  0  0  0  0  0  0  0  0  0  0
    0.7426   -0.0816   -0.0724 H   0  0  0  0  0  0  0  0  0  0  0  0
   -0.1856   -1.1836   -0.7100 H   0  0  0  0  0  0  0  0  0  0  0  0
  1  3  1  0  0  0  0
  1  5  1  0  0  0  0
  2  1  1  0  0  0  0
  2  8  1  0  0  0  0
  4  1  1  0  0  0  0
  6  2  1  0  0  0  0
  6  9  1  0  0  0  0
  6 10  1  0  0  0  0
  7  2  1  0  0  0  0
  9 12  1  0  0  0  0
 11  6  1  0  0  0  0
 13  9  1  0  0  0  0
 14  9  1  0  0  0  0
M  END
$$$$
