butane_opt
 OpenBabel08242015413D

 14 13  0  0  0  0  0  0  0  0999 V2000
   -3.9415    0.2742   -0.0185 C   0  0  0  0  0  0  0  0  0  0  0  0
   -2.6917   -0.6347    0.0888 C   0  0  0  0  0  0  0  0  0  0  0  0
   -4.8498   -0.3130   -0.0713 H   0  0  0  0  0  0  0  0  0  0  0  0
   -3.9060    0.8571   -0.9151 H   0  0  0  0  0  0  0  0  0  0  0  0
   -4.0131    1.0067    0.8813 H   0  0  0  0  0  0  0  0  0  0  0  0
   -1.4102    0.1722    0.0357 C   0  0  0  0  0  0  0  0  0  0  0  0
   -2.6375   -1.2887   -0.7392 H   0  0  0  0  0  0  0  0  0  0  0  0
   -2.6808   -1.2849    0.9932 H   0  0  0  0  0  0  0  0  0  0  0  0
   -0.1713   -0.6797    0.0026 C   0  0  0  0  0  0  0  0  0  0  0  0
   -1.3730    0.8508    0.8933 H   0  0  0  0  0  0  0  0  0  0  0  0
   -1.3821    0.8445   -0.8491 H   0  0  0  0  0  0  0  0  0  0  0  0
   -0.1452   -1.2406    0.8708 H   0  0  0  0  0  0  0  0  0  0  0  0
    0.7321   -0.0700   -0.0149 H   0  0  0  0  0  0  0  0  0  0  0  0
   -0.1926   -1.4233   -0.9186 H   0  0  0  0  0  0  0  0  0  0  0  0
  1  2  1  0  0  0  0
  1  5  1  0  0  0  0
  2  8  1  0  0  0  0
  3  1  1  0  0  0  0
  4  1  1  0  0  0  0
  6  2  1  0  0  0  0
  6 10  1  0  0  0  0
  7  2  1  0  0  0  0
  9  6  1  0  0  0  0
  9 12  1  0  0  0  0
 11  6  1  0  0  0  0
 13  9  1  0  0  0  0
 14  9  1  0  0  0  0
M  END
$$$$
