butane_opt
 OpenBabel08242015413D

 14 13  0  0  0  0  0  0  0  0999 V2000
   -3.9448    0.2559   -0.0060 C   0  0  0  0  0  0  0  0  0  0  0  0
   -2.7005   -0.6118    0.0610 C   0  0  0  0  0  0  0  0  0  0  0  0
   -4.8764   -0.3583   -0.0048 H   0  0  0  0  0  0  0  0  0  0  0  0
   -3.9403    0.8750   -0.9050 H   0  0  0  0  0  0  0  0  0  0  0  0
   -3.9876    0.9389    0.8615 H   0  0  0  0  0  0  0  0  0  0  0  0
   -1.4070    0.2032    0.0397 C   0  0  0  0  0  0  0  0  0  0  0  0
   -2.7066   -1.2994   -0.7990 H   0  0  0  0  0  0  0  0  0  0  0  0
   -2.7363   -1.2567    0.9626 H   0  0  0  0  0  0  0  0  0  0  0  0
   -0.1598   -0.6972    0.0145 C   0  0  0  0  0  0  0  0  0  0  0  0
   -1.4176    0.8951    0.8972 H   0  0  0  0  0  0  0  0  0  0  0  0
   -1.3843    0.8030   -0.8573 H   0  0  0  0  0  0  0  0  0  0  0  0
    0.0113   -1.3671    0.9142 H   0  0  0  0  0  0  0  0  0  0  0  0
    0.7421   -0.1487   -0.0804 H   0  0  0  0  0  0  0  0  0  0  0  0
   -0.1823   -1.3517   -0.8534 H   0  0  0  0  0  0  0  0  0  0  0  0
  1  3  1  0  0  0  0
  1  2  1  0  0  0  0
  1  5  1  0  0  0  0
  2  8  1  0  0  0  0
  4  1  1  0  0  0  0
  6  2  1  0  0  0  0
  6 10  1  0  0  0  0
  7  2  1  0  0  0  0
  9  6  1  0  0  0  0
  9 12  1  0  0  0  0
 11  6  1  0  0  0  0
 13  9  1  0  0  0  0
 14  9  1  0  0  0  0
M  END
$$$$
