butane_opt
 OpenBabel08242015413D

 14 13  0  0  0  0  0  0  0  0999 V2000
   -3.9558    0.2635   -0.0070 C   0  0  0  0  0  0  0  0  0  0  0  0
   -2.7067   -0.6189    0.0852 C   0  0  0  0  0  0  0  0  0  0  0  0
   -4.8353   -0.3094   -0.1431 H   0  0  0  0  0  0  0  0  0  0  0  0
   -3.9266    0.8011   -0.9000 H   0  0  0  0  0  0  0  0  0  0  0  0
   -4.0718    0.9744    0.8740 H   0  0  0  0  0  0  0  0  0  0  0  0
   -1.3964    0.1935    0.0285 C   0  0  0  0  0  0  0  0  0  0  0  0
   -2.7166   -1.2916   -0.7507 H   0  0  0  0  0  0  0  0  0  0  0  0
   -2.6673   -1.2424    0.9770 H   0  0  0  0  0  0  0  0  0  0  0  0
   -0.1557   -0.6911    0.0054 C   0  0  0  0  0  0  0  0  0  0  0  0
   -1.3353    0.8725    0.8729 H   0  0  0  0  0  0  0  0  0  0  0  0
   -1.3984    0.8036   -0.8368 H   0  0  0  0  0  0  0  0  0  0  0  0
   -0.0791   -1.3356    0.9084 H   0  0  0  0  0  0  0  0  0  0  0  0
    0.7348   -0.1165   -0.0350 H   0  0  0  0  0  0  0  0  0  0  0  0
   -0.1498   -1.3942   -0.8723 H   0  0  0  0  0  0  0  0  0  0  0  0
  1  2  1  0  0  0  0
  1  5  1  0  0  0  0
  2  8  1  0  0  0  0
  3  1  1  0  0  0  0
  4  1  1  0  0  0  0
  6  2  1  0  0  0  0
  6 10  1  0  0  0  0
  7  2  1  0  0  0  0
  9  6  1  0  0  0  0
  9 12  1  0  0  0  0
 11  6  1  0  0  0  0
 13  9  1  0  0  0  0
 14  9  1  0  0  0  0
M  END
$$$$
