butane_opt
 OpenBabel08242015413D

 14 13  0  0  0  0  0  0  0  0999 V2000
   -3.9226    0.2535   -0.0189 C   0  0  0  0  0  0  0  0  0  0  0  0
   -2.7010   -0.6070    0.0649 C   0  0  0  0  0  0  0  0  0  0  0  0
   -4.8346   -0.3708    0.0188 H   0  0  0  0  0  0  0  0  0  0  0  0
   -3.9113    0.8693   -0.9453 H   0  0  0  0  0  0  0  0  0  0  0  0
   -3.9656    0.9203    0.8276 H   0  0  0  0  0  0  0  0  0  0  0  0
   -1.4191    0.2044    0.0683 C   0  0  0  0  0  0  0  0  0  0  0  0
   -2.6851   -1.2838   -0.7826 H   0  0  0  0  0  0  0  0  0  0  0  0
   -2.7598   -1.2508    0.9505 H   0  0  0  0  0  0  0  0  0  0  0  0
   -0.1599   -0.7031   -0.0025 C   0  0  0  0  0  0  0  0  0  0  0  0
   -1.3970    0.8634    0.9216 H   0  0  0  0  0  0  0  0  0  0  0  0
   -1.4935    0.8439   -0.8109 H   0  0  0  0  0  0  0  0  0  0  0  0
   -0.0556   -1.3719    0.9360 H   0  0  0  0  0  0  0  0  0  0  0  0
    0.7389   -0.1376   -0.1469 H   0  0  0  0  0  0  0  0  0  0  0  0
   -0.2259   -1.3262   -0.8606 H   0  0  0  0  0  0  0  0  0  0  0  0
  1  3  1  0  0  0  0
  1  2  1  0  0  0  0
  1  5  1  0  0  0  0
  2  6  1  0  0  0  0
  2  8  1  0  0  0  0
  4  1  1  0  0  0  0
  6 10  1  0  0  0  0
  7  2  1  0  0  0  0
  9  6  1  0  0  0  0
  9 12  1  0  0  0  0
 11  6  1  0  0  0  0
 13  9  1  0  0  0  0
 14  9  1  0  0  0  0
M  END
$$$$
