butane_opt
 OpenBabel08242015413D

 14 13  0  0  0  0  0  0  0  0999 V2000
   -3.9592    0.2578    0.0254 C   0  0  0  0  0  0  0  0  0  0  0  0
   -2.7058   -0.6044    0.0093 C   0  0  0  0  0  0  0  0  0  0  0  0
   -4.8702   -0.3640    0.0971 H   0  0  0  0  0  0  0  0  0  0  0  0
   -4.0207    0.8007   -0.8231 H   0  0  0  0  0  0  0  0  0  0  0  0
   -3.9087    1.0022    0.9401 H   0  0  0  0  0  0  0  0  0  0  0  0
   -1.3986    0.1882    0.0023 C   0  0  0  0  0  0  0  0  0  0  0  0
   -2.7438   -1.3053   -0.8543 H   0  0  0  0  0  0  0  0  0  0  0  0
   -2.7037   -1.2525    0.8919 H   0  0  0  0  0  0  0  0  0  0  0  0
   -0.1475   -0.6977    0.0525 C   0  0  0  0  0  0  0  0  0  0  0  0
   -1.4092    0.8988    0.8538 H   0  0  0  0  0  0  0  0  0  0  0  0
   -1.4058    0.8335   -0.9124 H   0  0  0  0  0  0  0  0  0  0  0  0
   -0.0582   -1.4127    1.0049 H   0  0  0  0  0  0  0  0  0  0  0  0
    0.7355   -0.1325   -0.0766 H   0  0  0  0  0  0  0  0  0  0  0  0
   -0.1067   -1.2651   -0.7361 H   0  0  0  0  0  0  0  0  0  0  0  0
  1  3  1  0  0  0  0
  1  5  1  0  0  0  0
  2  1  1  0  0  0  0
  2  8  1  0  0  0  0
  4  1  1  0  0  0  0
  6  2  1  0  0  0  0
  6  9  1  0  0  0  0
  6 10  1  0  0  0  0
  7  2  1  0  0  0  0
  9 12  1  0  0  0  0
 11  6  1  0  0  0  0
 13  9  1  0  0  0  0
 14  9  1  0  0  0  0
M  END
$$$$
