14
butane_opt
C  -3.936824   0.259182  -0.002924
C  -2.697376  -0.594526   0.065780
H  -4.889671  -0.386297  -0.049853
H  -3.927048   0.873163  -0.926178
H  -3.993744   0.894432   0.822343
C  -1.410335   0.192693   0.041409
H  -2.703306  -1.281307  -0.787615
H  -2.694235  -1.297146   0.974424
C  -0.162702  -0.705651   0.001689
H  -1.382239   0.926522   0.933017
H  -1.387117   0.762596  -0.805515
H  -0.112228  -1.357862   0.904576
H   0.751639  -0.102036  -0.080078
H  -0.186608  -1.323869  -0.821502
