14
butane_opt
C  -3.935756   0.263856   0.042653
C  -2.696166  -0.609145   0.010107
H  -4.871723  -0.315734   0.081566
H  -4.031843   0.843649  -0.829814
H  -3.872843   0.965522   0.945640
C  -1.401382   0.182763  -0.025993
H  -2.690462  -1.300464  -0.847779
H  -2.694094  -1.273989   0.956739
C  -0.178114  -0.698004   0.053714
H  -1.425643   0.828291   0.807995
H  -1.336876   0.840559  -0.944851
H  -0.235710  -1.262503   0.938388
H   0.754043  -0.079772   0.156113
H  -0.077184  -1.391563  -0.795506
