butane_opt
 OpenBabel08242015413D

 14 13  0  0  0  0  0  0  0  0999 V2000
   -3.9551    0.2578   -0.0020 C   0  0  0  0  0  0  0  0  0  0  0  0
   -2.7061   -0.6112    0.0501 C   0  0  0  0  0  0  0  0  0  0  0  0
   -4.8984   -0.3469    0.1449 H   0  0  0  0  0  0  0  0  0  0  0  0
   -3.9457    0.9850   -0.9744 H   0  0  0  0  0  0  0  0  0  0  0  0
   -3.9375    0.8498    0.7991 H   0  0  0  0  0  0  0  0  0  0  0  0
   -1.4088    0.1909    0.0429 C   0  0  0  0  0  0  0  0  0  0  0  0
   -2.6913   -1.2933   -0.7805 H   0  0  0  0  0  0  0  0  0  0  0  0
   -2.7112   -1.2453    0.9437 H   0  0  0  0  0  0  0  0  0  0  0  0
   -0.1491   -0.6998    0.0134 C   0  0  0  0  0  0  0  0  0  0  0  0
   -1.3987    0.8972    0.9145 H   0  0  0  0  0  0  0  0  0  0  0  0
   -1.3578    0.8340   -0.8604 H   0  0  0  0  0  0  0  0  0  0  0  0
   -0.0981   -1.2681    0.8779 H   0  0  0  0  0  0  0  0  0  0  0  0
    0.7750   -0.1129    0.0158 H   0  0  0  0  0  0  0  0  0  0  0  0
   -0.1315   -1.4247   -0.9096 H   0  0  0  0  0  0  0  0  0  0  0  0
  1  2  1  0  0  0  0
  1  3  1  0  0  0  0
  1  5  1  0  0  0  0
  2  8  1  0  0  0  0
  4  1  1  0  0  0  0
  6  2  1  0  0  0  0
  6 10  1  0  0  0  0
  7  2  1  0  0  0  0
  9 13  1  0  0  0  0
  9  6  1  0  0  0  0
  9 12  1  0  0  0  0
 11  6  1  0  0  0  0
 14  9  1  0  0  0  0
M  END
$$$$
