14
butane_opt
C  -3.936619   0.252047  -0.023866
C  -2.707968  -0.606082   0.068468
H  -4.844306  -0.322146   0.024575
H  -3.971495   0.848178  -0.889019
H  -4.015669   0.896402   0.817639
C  -1.412722   0.203584   0.059654
H  -2.678885  -1.226462  -0.742680
H  -2.785131  -1.270310   0.995845
C  -0.148357  -0.705688  -0.007520
H  -1.381926   0.905842   0.922082
H  -1.395955   0.802765  -0.793869
H  -0.071577  -1.352233   0.881231
H   0.749929  -0.125997  -0.084183
H  -0.152273  -1.359307  -0.850751
