14
butane_opt
C  -3.943702   0.248141   0.044379
C  -2.702707  -0.601577  -0.000941
H  -4.867558  -0.339584   0.137841
H  -4.016622   0.867621  -0.852589
H  -3.851955   0.915244   0.910808
C  -1.407176   0.209140  -0.018172
H  -2.740651  -1.303687  -0.874331
H  -2.644507  -1.260857   0.934527
C  -0.162031  -0.706996   0.058791
H  -1.421782   0.846200   0.811967
H  -1.374506   0.864697  -0.919053
H  -0.185164  -1.302493   0.952088
H   0.718161  -0.139831   0.105658
H  -0.042655  -1.407664  -0.786681
