butane_opt
 OpenBabel08242015413D

 14 13  0  0  0  0  0  0  0  0999 V2000
   -3.9562    0.2655    0.0143 C   0  0  0  0  0  0  0  0  0  0  0  0
   -2.6988   -0.6206    0.0433 C   0  0  0  0  0  0  0  0  0  0  0  0
   -4.8586   -0.2918   -0.0439 H   0  0  0  0  0  0  0  0  0  0  0  0
   -3.9979    0.7597   -0.8123 H   0  0  0  0  0  0  0  0  0  0  0  0
   -4.0268    1.0310    0.9231 H   0  0  0  0  0  0  0  0  0  0  0  0
   -1.4050    0.1848   -0.0004 C   0  0  0  0  0  0  0  0  0  0  0  0
   -2.6960   -1.2666   -0.7882 H   0  0  0  0  0  0  0  0  0  0  0  0
   -2.7201   -1.2931    0.9869 H   0  0  0  0  0  0  0  0  0  0  0  0
   -0.1468   -0.6944    0.0363 C   0  0  0  0  0  0  0  0  0  0  0  0
   -1.3447    0.8707    0.8604 H   0  0  0  0  0  0  0  0  0  0  0  0
   -1.3980    0.8331   -0.9193 H   0  0  0  0  0  0  0  0  0  0  0  0
   -0.1211   -1.3139    0.9320 H   0  0  0  0  0  0  0  0  0  0  0  0
    0.7940   -0.0650    0.0250 H   0  0  0  0  0  0  0  0  0  0  0  0
   -0.1704   -1.3622   -0.8284 H   0  0  0  0  0  0  0  0  0  0  0  0
  1  2  1  0  0  0  0
  1  5  1  0  0  0  0
  2  8  1  0  0  0  0
  3  1  1  0  0  0  0
  4  1  1  0  0  0  0
  6  9  1  0  0  0  0
  6  2  1  0  0  0  0
  6 10  1  0  0  0  0
  7  2  1  0  0  0  0
  9 12  1  0  0  0  0
 11  6  1  0  0  0  0
 13  9  1  0  0  0  0
 14  9  1  0  0  0  0
M  END
$$$$
