butane_opt
 OpenBabel08242015413D

 14 13  0  0  0  0  0  0  0  0999 V2000
   -3.9475    0.2749    0.0453 C   0  0  0  0  0  0  0  0  0  0  0  0
   -2.6862   -0.6265    0.0036 C   0  0  0  0  0  0  0  0  0  0  0  0
   -4.8345   -0.3155    0.1873 H   0  0  0  0  0  0  0  0  0  0  0  0
   -4.0370    0.9269   -0.8722 H   0  0  0  0  0  0  0  0  0  0  0  0
   -3.8760    0.8914    0.8914 H   0  0  0  0  0  0  0  0  0  0  0  0
   -1.4116    0.1673   -0.0179 C   0  0  0  0  0  0  0  0  0  0  0  0
   -2.7065   -1.3729   -0.9119 H   0  0  0  0  0  0  0  0  0  0  0  0
   -2.6636   -1.1638    0.8377 H   0  0  0  0  0  0  0  0  0  0  0  0
   -0.1682   -0.6868    0.0609 C   0  0  0  0  0  0  0  0  0  0  0  0
   -1.4080    0.8541    0.8582 H   0  0  0  0  0  0  0  0  0  0  0  0
   -1.3537    0.8375   -0.9303 H   0  0  0  0  0  0  0  0  0  0  0  0
   -0.2086   -1.3354    0.9878 H   0  0  0  0  0  0  0  0  0  0  0  0
    0.7866   -0.0595    0.0659 H   0  0  0  0  0  0  0  0  0  0  0  0
   -0.1658   -1.2742   -0.7740 H   0  0  0  0  0  0  0  0  0  0  0  0
  1  3  1  0  0  0  0
  1  5  1  0  0  0  0
  2  1  1  0  0  0  0
  2  8  1  0  0  0  0
  4  1  1  0  0  0  0
  6  2  1  0  0  0  0
  6  9  1  0  0  0  0
  6 10  1  0  0  0  0
  7  2  1  0  0  0  0
  9 13  1  0  0  0  0
  9 12  1  0  0  0  0
 11  6  1  0  0  0  0
 14  9  1  0  0  0  0
M  END
$$$$
