butane_opt
 OpenBabel08242015413D

 14 13  0  0  0  0  0  0  0  0999 V2000
   -3.9385    0.2698    0.0313 C   0  0  0  0  0  0  0  0  0  0  0  0
   -2.6984   -0.6329    0.0118 C   0  0  0  0  0  0  0  0  0  0  0  0
   -4.8070   -0.2843    0.0146 H   0  0  0  0  0  0  0  0  0  0  0  0
   -3.9597    0.8576   -0.8557 H   0  0  0  0  0  0  0  0  0  0  0  0
   -3.9633    0.9805    0.9011 H   0  0  0  0  0  0  0  0  0  0  0  0
   -1.4102    0.1794    0.0153 C   0  0  0  0  0  0  0  0  0  0  0  0
   -2.6836   -1.2822   -0.8544 H   0  0  0  0  0  0  0  0  0  0  0  0
   -2.7011   -1.2682    0.9048 H   0  0  0  0  0  0  0  0  0  0  0  0
   -0.1686   -0.6845    0.0432 C   0  0  0  0  0  0  0  0  0  0  0  0
   -1.4259    0.9047    0.8953 H   0  0  0  0  0  0  0  0  0  0  0  0
   -1.3681    0.7914   -0.8710 H   0  0  0  0  0  0  0  0  0  0  0  0
   -0.1036   -1.4214    1.0075 H   0  0  0  0  0  0  0  0  0  0  0  0
    0.7699   -0.0816   -0.1801 H   0  0  0  0  0  0  0  0  0  0  0  0
   -0.2027   -1.2391   -0.7307 H   0  0  0  0  0  0  0  0  0  0  0  0
  1  5  1  0  0  0  0
  2  6  1  0  0  0  0
  2  1  1  0  0  0  0
  2  8  1  0  0  0  0
  3  1  1  0  0  0  0
  4  1  1  0  0  0  0
  6  9  1  0  0  0  0
  6 10  1  0  0  0  0
  7  2  1  0  0  0  0
  9 12  1  0  0  0  0
 11  6  1  0  0  0  0
 13  9  1  0  0  0  0
 14  9  1  0  0  0  0
M  END
$$$$
