butane_opt
 OpenBabel08242015413D

 14 13  0  0  0  0  0  0  0  0999 V2000
   -3.9522    0.2635   -0.0290 C   0  0  0  0  0  0  0  0  0  0  0  0
   -2.7004   -0.6166    0.0733 C   0  0  0  0  0  0  0  0  0  0  0  0
   -4.8700   -0.3399    0.0078 H   0  0  0  0  0  0  0  0  0  0  0  0
   -3.9785    0.8558   -0.8933 H   0  0  0  0  0  0  0  0  0  0  0  0
   -4.0167    0.9186    0.8337 H   0  0  0  0  0  0  0  0  0  0  0  0
   -1.4034    0.1961    0.0572 C   0  0  0  0  0  0  0  0  0  0  0  0
   -2.7024   -1.2521   -0.7613 H   0  0  0  0  0  0  0  0  0  0  0  0
   -2.7496   -1.2785    1.0052 H   0  0  0  0  0  0  0  0  0  0  0  0
   -0.1475   -0.7011   -0.0039 C   0  0  0  0  0  0  0  0  0  0  0  0
   -1.3666    0.9216    0.9374 H   0  0  0  0  0  0  0  0  0  0  0  0
   -1.4299    0.7663   -0.8025 H   0  0  0  0  0  0  0  0  0  0  0  0
   -0.0266   -1.3429    0.9231 H   0  0  0  0  0  0  0  0  0  0  0  0
    0.7735   -0.0961   -0.1088 H   0  0  0  0  0  0  0  0  0  0  0  0
   -0.2110   -1.3298   -0.8667 H   0  0  0  0  0  0  0  0  0  0  0  0
  1  3  1  0  0  0  0
  1  2  1  0  0  0  0
  1  5  1  0  0  0  0
  2  8  1  0  0  0  0
  4  1  1  0  0  0  0
  6  2  1  0  0  0  0
  6 10  1  0  0  0  0
  7  2  1  0  0  0  0
  9  6  1  0  0  0  0
  9 12  1  0  0  0  0
 11  6  1  0  0  0  0
 13  9  1  0  0  0  0
 14  9  1  0  0  0  0
M  END
$$$$
