butane_opt
 OpenBabel08242015413D

 14 13  0  0  0  0  0  0  0  0999 V2000
   -3.9376    0.2687   -0.0107 C   0  0  0  0  0  0  0  0  0  0  0  0
   -2.7058   -0.6136    0.0574 C   0  0  0  0  0  0  0  0  0  0  0  0
   -4.8631   -0.3397    0.1242 H   0  0  0  0  0  0  0  0  0  0  0  0
   -4.0026    1.0128   -0.9773 H   0  0  0  0  0  0  0  0  0  0  0  0
   -3.9563    0.8398    0.7589 H   0  0  0  0  0  0  0  0  0  0  0  0
   -1.4074    0.1714    0.0486 C   0  0  0  0  0  0  0  0  0  0  0  0
   -2.7185   -1.2868   -0.7801 H   0  0  0  0  0  0  0  0  0  0  0  0
   -2.7132   -1.2786    0.9935 H   0  0  0  0  0  0  0  0  0  0  0  0
   -0.1565   -0.6927   -0.0029 C   0  0  0  0  0  0  0  0  0  0  0  0
   -1.3091    0.9297    0.9486 H   0  0  0  0  0  0  0  0  0  0  0  0
   -1.4191    0.7663   -0.7941 H   0  0  0  0  0  0  0  0  0  0  0  0
   -0.1450   -1.2742    0.8611 H   0  0  0  0  0  0  0  0  0  0  0  0
    0.7606   -0.0937    0.0553 H   0  0  0  0  0  0  0  0  0  0  0  0
   -0.1638   -1.3547   -0.8701 H   0  0  0  0  0  0  0  0  0  0  0  0
  1  2  1  0  0  0  0
  1  3  1  0  0  0  0
  1  5  1  0  0  0  0
  2  8  1  0  0  0  0
  4  1  1  0  0  0  0
  6  2  1  0  0  0  0
  6 10  1  0  0  0  0
  7  2  1  0  0  0  0
  9  6  1  0  0  0  0
  9 13  1  0  0  0  0
  9 12  1  0  0  0  0
 11  6  1  0  0  0  0
 14  9  1  0  0  0  0
M  END
$$$$
