butane_opt
 OpenBabel08242015413D

 14 13  0  0  0  0  0  0  0  0999 V2000
   -3.9508    0.2727    0.0011 C   0  0  0  0  0  0  0  0  0  0  0  0
   -2.6943   -0.6229    0.0303 C   0  0  0  0  0  0  0  0  0  0  0  0
   -4.8633   -0.3239    0.2398 H   0  0  0  0  0  0  0  0  0  0  0  0
   -4.0753    0.9829   -0.9383 H   0  0  0  0  0  0  0  0  0  0  0  0
   -3.9216    0.8393    0.7810 H   0  0  0  0  0  0  0  0  0  0  0  0
   -1.3934    0.1829    0.0279 C   0  0  0  0  0  0  0  0  0  0  0  0
   -2.7062   -1.3220   -0.8155 H   0  0  0  0  0  0  0  0  0  0  0  0
   -2.7684   -1.2839    0.9766 H   0  0  0  0  0  0  0  0  0  0  0  0
   -0.1659   -0.6911    0.0258 C   0  0  0  0  0  0  0  0  0  0  0  0
   -1.3236    0.9118    0.9050 H   0  0  0  0  0  0  0  0  0  0  0  0
   -1.3852    0.7847   -0.8143 H   0  0  0  0  0  0  0  0  0  0  0  0
   -0.1080   -1.2436    0.8986 H   0  0  0  0  0  0  0  0  0  0  0  0
    0.7163   -0.1168    0.0263 H   0  0  0  0  0  0  0  0  0  0  0  0
   -0.1314   -1.4003   -0.8517 H   0  0  0  0  0  0  0  0  0  0  0  0
  1  2  1  0  0  0  0
  1  3  1  0  0  0  0
  1  5  1  0  0  0  0
  2  8  1  0  0  0  0
  4  1  1  0  0  0  0
  6  2  1  0  0  0  0
  6 10  1  0  0  0  0
  7  2  1  0  0  0  0
  9 13  1  0  0  0  0
  9  6  1  0  0  0  0
  9 12  1  0  0  0  0
 11  6  1  0  0  0  0
 14  9  1  0  0  0  0
M  END
$$$$
