14
butane_opt
C  -3.946323   0.281665  -0.002182
C  -2.708829  -0.637522   0.067012
H  -4.823165  -0.292097   0.083337
H  -4.040934   0.925685  -0.918588
H  -4.014665   0.911531   0.822465
C  -1.388642   0.176137   0.025824
H  -2.709828  -1.317850  -0.790257
H  -2.755102  -1.268863   0.960530
C  -0.156687  -0.680756   0.013051
H  -1.372493   0.830937   0.827878
H  -1.395739   0.817091  -0.877193
H  -0.143970  -1.209875   0.843359
H   0.750017  -0.080801   0.143059
H  -0.117063  -1.457547  -0.904700
