14
butane_opt
C  -3.957615   0.249428   0.036187
C  -2.705205  -0.596951   0.017294
H  -4.880859  -0.351518   0.126488
H  -4.002421   0.924606  -0.907099
H  -3.935526   0.859379   0.850621
C  -1.406229   0.193190  -0.004910
H  -2.721604  -1.276829  -0.840404
H  -2.671910  -1.235731   0.887793
C  -0.142217  -0.700589   0.041912
H  -1.372679   0.921546   0.879385
H  -1.379891   0.793656  -0.876515
H  -0.139483  -1.352879   0.969923
H   0.723087  -0.117986   0.077002
H  -0.097810  -1.385357  -0.815630
