14
butane_opt
C  -3.932614   0.247671  -0.002295
C  -2.698153  -0.606691   0.066716
H  -4.883727  -0.360103  -0.100885
H  -3.866966   0.791584  -0.865420
H  -4.023444   1.031790   0.920203
C  -1.420868   0.201788   0.021335
H  -2.698378  -1.213924  -0.741224
H  -2.736535  -1.266808   1.010436
C  -0.165008  -0.704490   0.010234
H  -1.324587   0.886422   0.879037
H  -1.447699   0.812179  -0.855323
H  -0.082141  -1.328696   0.900640
H   0.728342  -0.140009   0.004271
H  -0.081999  -1.355951  -0.847632
