butane_opt
 OpenBabel08242015413D

 14 13  0  0  0  0  0  0  0  0999 V2000
   -3.9593    0.2752   -0.0184 C   0  0  0  0  0  0  0  0  0  0  0  0
   -2.7024   -0.6411    0.0853 C   0  0  0  0  0  0  0  0  0  0  0  0
   -4.8104   -0.2666   -0.0718 H   0  0  0  0  0  0  0  0  0  0  0  0
   -3.9143    0.8764   -0.9084 H   0  0  0  0  0  0  0  0  0  0  0  0
   -4.0711    0.9768    0.8590 H   0  0  0  0  0  0  0  0  0  0  0  0
   -1.3968    0.1814    0.0434 C   0  0  0  0  0  0  0  0  0  0  0  0
   -2.6933   -1.2785   -0.7241 H   0  0  0  0  0  0  0  0  0  0  0  0
   -2.7245   -1.3006    0.9867 H   0  0  0  0  0  0  0  0  0  0  0  0
   -0.1532   -0.6802    0.0063 C   0  0  0  0  0  0  0  0  0  0  0  0
   -1.3625    0.8537    0.8858 H   0  0  0  0  0  0  0  0  0  0  0  0
   -1.4195    0.7975   -0.8675 H   0  0  0  0  0  0  0  0  0  0  0  0
   -0.0829   -1.2533    0.8468 H   0  0  0  0  0  0  0  0  0  0  0  0
    0.7567   -0.0536   -0.0406 H   0  0  0  0  0  0  0  0  0  0  0  0
   -0.1780   -1.4366   -0.9280 H   0  0  0  0  0  0  0  0  0  0  0  0
  1  2  1  0  0  0  0
  1  5  1  0  0  0  0
  2  8  1  0  0  0  0
  3  1  1  0  0  0  0
  4  1  1  0  0  0  0
  6  2  1  0  0  0  0
  6 10  1  0  0  0  0
  7  2  1  0  0  0  0
  9  6  1  0  0  0  0
  9 12  1  0  0  0  0
 11  6  1  0  0  0  0
 13  9  1  0  0  0  0
 14  9  1  0  0  0  0
M  END
$$$$
