14
butane_opt
C  -3.947071   0.243735   0.033626
C  -2.705433  -0.604209   0.023680
H  -4.829443  -0.312625   0.033570
H  -3.988052   0.836476  -0.808212
H  -3.970443   0.974903   0.941975
C  -1.410536   0.201128  -0.017769
H  -2.726383  -1.274652  -0.818278
H  -2.764570  -1.251376   0.932701
C  -0.142371  -0.707080   0.048532
H  -1.398942   0.889839   0.818108
H  -1.378547   0.885191  -0.938157
H  -0.148825  -1.297533   0.932373
H   0.735001  -0.144029   0.106619
H  -0.078357  -1.391561  -0.810273
