14
butane_opt
C  -3.954327   0.267928   0.018149
C  -2.701152  -0.628241   0.050532
H  -4.823838  -0.291448   0.058138
H  -3.999266   0.977703  -0.938493
H  -4.022736   0.905917   0.835899
C  -1.397823   0.184342   0.012655
H  -2.736566  -1.343315  -0.820565
H  -2.703376  -1.266311   0.964537
C  -0.151111  -0.687223   0.022029
H  -1.375473   0.862464   0.843974
H  -1.334440   0.809141  -0.871744
H  -0.186537  -1.261488   0.888029
H   0.743986  -0.085685   0.134596
H  -0.127316  -1.420679  -0.908028
