butane_opt
 OpenBabel08242015413D

 14 13  0  0  0  0  0  0  0  0999 V2000
   -3.9426    0.2798   -0.0159 C   0  0  0  0  0  0  0  0  0  0  0  0
   -2.6878   -0.6333    0.0838 C   0  0  0  0  0  0  0  0  0  0  0  0
   -4.8575   -0.2915   -0.0597 H   0  0  0  0  0  0  0  0  0  0  0  0
   -3.9636    0.8736   -0.8964 H   0  0  0  0  0  0  0  0  0  0  0  0
   -3.9788    0.9520    0.8421 H   0  0  0  0  0  0  0  0  0  0  0  0
   -1.3931    0.1758    0.0385 C   0  0  0  0  0  0  0  0  0  0  0  0
   -2.6988   -1.3142   -0.7881 H   0  0  0  0  0  0  0  0  0  0  0  0
   -2.7338   -1.2767    1.0151 H   0  0  0  0  0  0  0  0  0  0  0  0
   -0.1839   -0.6872    0.0038 C   0  0  0  0  0  0  0  0  0  0  0  0
   -1.3475    0.8321    0.8893 H   0  0  0  0  0  0  0  0  0  0  0  0
   -1.4060    0.8407   -0.8648 H   0  0  0  0  0  0  0  0  0  0  0  0
   -0.1282   -1.2296    0.8586 H   0  0  0  0  0  0  0  0  0  0  0  0
    0.7613   -0.0655    0.0088 H   0  0  0  0  0  0  0  0  0  0  0  0
   -0.1875   -1.4116   -0.8957 H   0  0  0  0  0  0  0  0  0  0  0  0
  1  2  1  0  0  0  0
  1  5  1  0  0  0  0
  2  8  1  0  0  0  0
  3  1  1  0  0  0  0
  4  1  1  0  0  0  0
  6  2  1  0  0  0  0
  6 10  1  0  0  0  0
  7  2  1  0  0  0  0
  9 13  1  0  0  0  0
  9  6  1  0  0  0  0
  9 12  1  0  0  0  0
 11  6  1  0  0  0  0
 14  9  1  0  0  0  0
M  END
$$$$
