14
butane_opt
C  -3.960569   0.274026   0.035432
C  -2.694598  -0.632928   0.012953
H  -4.850691  -0.287039   0.143599
H  -4.039854   0.922120  -0.899777
H  -3.942202   0.886849   0.851521
C  -1.389408   0.178251   0.004728
H  -2.780631  -1.320230  -0.867312
H  -2.675729  -1.224466   0.871288
C  -0.160224  -0.686694   0.048875
H  -1.381714   0.870388   0.837105
H  -1.323415   0.861969  -0.920235
H  -0.117318  -1.305583   0.966574
H   0.713533  -0.122505   0.058199
H  -0.167453  -1.352051  -0.828111
