14
butane_opt
C  -3.940949   0.274570   0.031905
C  -2.688778  -0.622905   0.024032
H  -4.834977  -0.288308  -0.005735
H  -3.964928   0.833196  -0.843268
H  -4.006369   0.995344   0.926131
C  -1.397285   0.169292  -0.001142
H  -2.760998  -1.351225  -0.862973
H  -2.696949  -1.220096   0.881794
C  -0.171738  -0.678506   0.041203
H  -1.407738   0.886211   0.876897
H  -1.355135   0.768086  -0.891524
H  -0.133811  -1.461306   1.064980
H   0.773248  -0.080579  -0.092739
H  -0.256362  -1.252233  -0.746985
