butane_opt
 OpenBabel08242015413D

 14 13  0  0  0  0  0  0  0  0999 V2000
   -3.9598    0.2778    0.0025 C   0  0  0  0  0  0  0  0  0  0  0  0
   -2.7011   -0.6403    0.0488 C   0  0  0  0  0  0  0  0  0  0  0  0
   -4.8649   -0.2881    0.0267 H   0  0  0  0  0  0  0  0  0  0  0  0
   -3.9429    0.9026   -0.9091 H   0  0  0  0  0  0  0  0  0  0  0  0
   -4.0366    0.9512    0.8726 H   0  0  0  0  0  0  0  0  0  0  0  0
   -1.3967    0.1816    0.0376 C   0  0  0  0  0  0  0  0  0  0  0  0
   -2.6505   -1.3654   -0.8183 H   0  0  0  0  0  0  0  0  0  0  0  0
   -2.7101   -1.2198    0.9017 H   0  0  0  0  0  0  0  0  0  0  0  0
   -0.1607   -0.6862    0.0160 C   0  0  0  0  0  0  0  0  0  0  0  0
   -1.3190    0.8770    0.9041 H   0  0  0  0  0  0  0  0  0  0  0  0
   -1.4135    0.7723   -0.8405 H   0  0  0  0  0  0  0  0  0  0  0  0
   -0.0567   -1.3636    0.9593 H   0  0  0  0  0  0  0  0  0  0  0  0
    0.7739   -0.0893   -0.1463 H   0  0  0  0  0  0  0  0  0  0  0  0
   -0.1905   -1.2297   -0.7507 H   0  0  0  0  0  0  0  0  0  0  0  0
  1  3  1  0  0  0  0
  1  2  1  0  0  0  0
  1  5  1  0  0  0  0
  2  8  1  0  0  0  0
  4  1  1  0  0  0  0
  6  2  1  0  0  0  0
  6 10  1  0  0  0  0
  7  2  1  0  0  0  0
  9  6  1  0  0  0  0
  9 12  1  0  0  0  0
 11  6  1  0  0  0  0
 13  9  1  0  0  0  0
 14  9  1  0  0  0  0
M  END
$$$$
