butane_opt
 OpenBabel08242015413D

 14 13  0  0  0  0  0  0  0  0999 V2000
   -3.9493    0.2529   -0.0031 C   0  0  0  0  0  0  0  0  0  0  0  0
   -2.7031   -0.6032    0.0780 C   0  0  0  0  0  0  0  0  0  0  0  0
   -4.8657   -0.3440   -0.0666 H   0  0  0  0  0  0  0  0  0  0  0  0
   -3.8724    0.8380   -0.9050 H   0  0  0  0  0  0  0  0  0  0  0  0
   -4.0676    0.9244    0.8582 H   0  0  0  0  0  0  0  0  0  0  0  0
   -1.3993    0.2017    0.0280 C   0  0  0  0  0  0  0  0  0  0  0  0
   -2.6992   -1.2899   -0.7641 H   0  0  0  0  0  0  0  0  0  0  0  0
   -2.7571   -1.2606    0.9777 H   0  0  0  0  0  0  0  0  0  0  0  0
   -0.1592   -0.7011    0.0038 C   0  0  0  0  0  0  0  0  0  0  0  0
   -1.3637    0.8806    0.9022 H   0  0  0  0  0  0  0  0  0  0  0  0
   -1.4550    0.8610   -0.8614 H   0  0  0  0  0  0  0  0  0  0  0  0
   -0.0826   -1.3050    0.8878 H   0  0  0  0  0  0  0  0  0  0  0  0
    0.7480   -0.1360    0.0198 H   0  0  0  0  0  0  0  0  0  0  0  0
   -0.0789   -1.4455   -0.8862 H   0  0  0  0  0  0  0  0  0  0  0  0
  1  2  1  0  0  0  0
  1  5  1  0  0  0  0
  2  8  1  0  0  0  0
  3  1  1  0  0  0  0
  4  1  1  0  0  0  0
  6  2  1  0  0  0  0
  6 10  1  0  0  0  0
  7  2  1  0  0  0  0
  9 13  1  0  0  0  0
  9  6  1  0  0  0  0
  9 12  1  0  0  0  0
 11  6  1  0  0  0  0
 14  9  1  0  0  0  0
M  END
$$$$
