14
butane_opt
C  -3.950269   0.262358   0.025191
C  -2.703102  -0.602195   0.034344
H  -4.907959  -0.370986  -0.078533
H  -3.960309   0.808279  -0.820977
H  -3.980314   1.004849   0.934451
C  -1.400716   0.186288   0.005705
H  -2.749733  -1.307383  -0.846729
H  -2.755663  -1.249997   0.922639
C  -0.149036  -0.696251   0.035121
H  -1.330952   0.842658   0.846907
H  -1.419495   0.841502  -0.883663
H  -0.094264  -1.405238   0.997390
H   0.750329  -0.126585  -0.063642
H  -0.132512  -1.314588  -0.756434
