butane_opt
 OpenBabel08242015413D

 14 13  0  0  0  0  0  0  0  0999 V2000
   -3.9314    0.2563    0.0143 C   0  0  0  0  0  0  0  0  0  0  0  0
   -2.7077   -0.6033    0.0516 C   0  0  0  0  0  0  0  0  0  0  0  0
   -4.8513   -0.3478    0.0212 H   0  0  0  0  0  0  0  0  0  0  0  0
   -3.9082    0.8789   -0.8978 H   0  0  0  0  0  0  0  0  0  0  0  0
   -3.9491    0.8855    0.8442 H   0  0  0  0  0  0  0  0  0  0  0  0
   -1.4161    0.1961    0.0137 C   0  0  0  0  0  0  0  0  0  0  0  0
   -2.7424   -1.2541   -0.7967 H   0  0  0  0  0  0  0  0  0  0  0  0
   -2.7171   -1.2173    0.9547 H   0  0  0  0  0  0  0  0  0  0  0  0
   -0.1620   -0.7101    0.0259 C   0  0  0  0  0  0  0  0  0  0  0  0
   -1.3547    0.8621    0.8521 H   0  0  0  0  0  0  0  0  0  0  0  0
   -1.4254    0.8276   -0.8824 H   0  0  0  0  0  0  0  0  0  0  0  0
   -0.1628   -1.2662    0.8867 H   0  0  0  0  0  0  0  0  0  0  0  0
    0.7649   -0.0823    0.0730 H   0  0  0  0  0  0  0  0  0  0  0  0
   -0.0723   -1.4314   -0.8884 H   0  0  0  0  0  0  0  0  0  0  0  0
  1  3  1  0  0  0  0
  1  2  1  0  0  0  0
  1  5  1  0  0  0  0
  2  8  1  0  0  0  0
  4  1  1  0  0  0  0
  6  9  1  0  0  0  0
  6  2  1  0  0  0  0
  6 10  1  0  0  0  0
  7  2  1  0  0  0  0
  9 13  1  0  0  0  0
  9 12  1  0  0  0  0
 11  6  1  0  0  0  0
 14  9  1  0  0  0  0
M  END
$$$$
