14
butane_opt
C  -3.942100   0.255560   0.038726
C  -2.715999  -0.612131   0.014850
H  -4.871650  -0.367244   0.011382
H  -3.959112   0.867686  -0.839995
H  -4.006265   0.955467   0.889182
C  -1.409937   0.200126   0.004767
H  -2.706586  -1.302435  -0.834191
H  -2.707090  -1.191086   0.864244
C  -0.139864  -0.705374   0.043390
H  -1.417002   0.879032   0.850729
H  -1.399690   0.826816  -0.905498
H  -0.067571  -1.410156   1.005018
H   0.785812  -0.110783  -0.064191
H  -0.173577  -1.279759  -0.741231
