14
butane_opt
C  -3.929241   0.254218   0.007378
C  -2.711917  -0.608194   0.041184
H  -4.860470  -0.366330   0.012966
H  -3.889782   0.878613  -0.922302
H  -3.936761   0.936845   0.884870
C  -1.411422   0.203228   0.034758
H  -2.669032  -1.282923  -0.802449
H  -2.729860  -1.218312   0.939802
C  -0.164289  -0.705530   0.015233
H  -1.380023   0.919754   0.907169
H  -1.409801   0.778069  -0.811768
H  -0.077330  -1.438107   0.970944
H   0.709178  -0.143979  -0.120252
H  -0.170449  -1.263410  -0.788202
