14
butane_opt
C  -3.926498   0.256252   0.027427
C  -2.703816  -0.603361   0.034185
H  -4.844097  -0.363665  -0.099786
H  -3.901991   0.721859  -0.776986
H  -3.960800   1.037798   0.993169
C  -1.412675   0.205943  -0.005089
H  -2.717271  -1.308822  -0.804276
H  -2.725533  -1.236303   0.931501
C  -0.172177  -0.710453   0.041417
H  -1.408292   0.816096   0.796252
H  -1.403889   0.911664  -0.952190
H  -0.117690  -1.384064   0.975642
H   0.759593  -0.100237   0.016026
H  -0.122963  -1.346474  -0.795253
