butane_opt
 OpenBabel08242015413D

 14 13  0  0  0  0  0  0  0  0999 V2000
   -3.9416    0.2736    0.0046 C   0  0  0  0  0  0  0  0  0  0  0  0
   -2.6968   -0.6290    0.0527 C   0  0  0  0  0  0  0  0  0  0  0  0
   -4.8437   -0.3309    0.1425 H   0  0  0  0  0  0  0  0  0  0  0  0
   -3.9955    1.0550   -1.0112 H   0  0  0  0  0  0  0  0  0  0  0  0
   -3.9438    0.7913    0.7742 H   0  0  0  0  0  0  0  0  0  0  0  0
   -1.4090    0.1725    0.0346 C   0  0  0  0  0  0  0  0  0  0  0  0
   -2.6728   -1.3134   -0.8033 H   0  0  0  0  0  0  0  0  0  0  0  0
   -2.7020   -1.1979    0.9095 H   0  0  0  0  0  0  0  0  0  0  0  0
   -0.1673   -0.6895    0.0172 C   0  0  0  0  0  0  0  0  0  0  0  0
   -1.4067    0.9064    0.9043 H   0  0  0  0  0  0  0  0  0  0  0  0
   -1.4144    0.7639   -0.8187 H   0  0  0  0  0  0  0  0  0  0  0  0
   -0.1114   -1.2229    0.8796 H   0  0  0  0  0  0  0  0  0  0  0  0
    0.8197   -0.0382    0.0069 H   0  0  0  0  0  0  0  0  0  0  0  0
   -0.1856   -1.4064   -0.8754 H   0  0  0  0  0  0  0  0  0  0  0  0
  1  2  1  0  0  0  0
  1  3  1  0  0  0  0
  1  5  1  0  0  0  0
  2  8  1  0  0  0  0
  4  1  1  0  0  0  0
  6  2  1  0  0  0  0
  6 10  1  0  0  0  0
  7  2  1  0  0  0  0
  9  6  1  0  0  0  0
  9 12  1  0  0  0  0
 11  6  1  0  0  0  0
 13  9  1  0  0  0  0
 14  9  1  0  0  0  0
M  END
$$$$
