14
butane_opt
C  -3.950051   0.259864   0.005298
C  -2.715704  -0.606127   0.039318
H  -4.856621  -0.347195   0.156535
H  -4.010127   0.987389  -0.969017
H  -3.923570   0.809110   0.798191
C  -1.401183   0.198257   0.033416
H  -2.737543  -1.257361  -0.807705
H  -2.731072  -1.271117   0.952703
C  -0.141888  -0.711198   0.024616
H  -1.366255   0.881135   0.867663
H  -1.393790   0.802019  -0.831210
H  -0.092315  -1.225968   0.847174
H   0.786184  -0.112695   0.066198
H  -0.183401  -1.424458  -0.886606
