butane_opt
 OpenBabel08242015413D

 14 13  0  0  0  0  0  0  0  0999 V2000
   -3.9535    0.2746   -0.0174 C   0  0  0  0  0  0  0  0  0  0  0  0
   -2.6837   -0.6200    0.0709 C   0  0  0  0  0  0  0  0  0  0  0  0
   -4.8562   -0.3084   -0.0451 H   0  0  0  0  0  0  0  0  0  0  0  0
   -3.9208    0.8511   -0.8801 H   0  0  0  0  0  0  0  0  0  0  0  0
   -3.9865    0.9732    0.8330 H   0  0  0  0  0  0  0  0  0  0  0  0
   -1.3961    0.1631    0.0432 C   0  0  0  0  0  0  0  0  0  0  0  0
   -2.6739   -1.2671   -0.7435 H   0  0  0  0  0  0  0  0  0  0  0  0
   -2.6817   -1.3023    0.9876 H   0  0  0  0  0  0  0  0  0  0  0  0
   -0.1751   -0.6769    0.0019 C   0  0  0  0  0  0  0  0  0  0  0  0
   -1.3810    0.8582    0.9174 H   0  0  0  0  0  0  0  0  0  0  0  0
   -1.4262    0.7537   -0.7954 H   0  0  0  0  0  0  0  0  0  0  0  0
   -0.0751   -1.3173    0.9148 H   0  0  0  0  0  0  0  0  0  0  0  0
    0.7415   -0.0750   -0.0683 H   0  0  0  0  0  0  0  0  0  0  0  0
   -0.2714   -1.3230   -0.8575 H   0  0  0  0  0  0  0  0  0  0  0  0
  1  2  1  0  0  0  0
  1  5  1  0  0  0  0
  2  8  1  0  0  0  0
  3  1  1  0  0  0  0
  4  1  1  0  0  0  0
  6  2  1  0  0  0  0
  6 10  1  0  0  0  0
  7  2  1  0  0  0  0
  9  6  1  0  0  0  0
  9 12  1  0  0  0  0
 11  6  1  0  0  0  0
 13  9  1  0  0  0  0
 14  9  1  0  0  0  0
M  END
$$$$
