14
butane_opt
C  -3.954117   0.255064   0.035681
C  -2.697095  -0.614174   0.007914
H  -4.865637  -0.333354   0.013746
H  -4.008895   0.829214  -0.829729
H  -3.921263   0.986732   0.944486
C  -1.408273   0.206964   0.010784
H  -2.725028  -1.364703  -0.894576
H  -2.691092  -1.217040   0.901498
C  -0.155259  -0.703596   0.050731
H  -1.385755   0.825450   0.806696
H  -1.362610   0.882650  -0.925813
H  -0.077669  -1.442251   1.026243
H   0.745365  -0.116375  -0.085317
H  -0.148310  -1.253290  -0.763520
