butane_opt
 OpenBabel08242015413D

 14 13  0  0  0  0  0  0  0  0999 V2000
   -3.9412    0.2668    0.0075 C   0  0  0  0  0  0  0  0  0  0  0  0
   -2.6904   -0.6258    0.0489 C   0  0  0  0  0  0  0  0  0  0  0  0
   -4.8570   -0.3363    0.1161 H   0  0  0  0  0  0  0  0  0  0  0  0
   -3.9997    0.9924   -0.9584 H   0  0  0  0  0  0  0  0  0  0  0  0
   -3.9477    0.8696    0.8174 H   0  0  0  0  0  0  0  0  0  0  0  0
   -1.4014    0.1876    0.0253 C   0  0  0  0  0  0  0  0  0  0  0  0
   -2.6892   -1.3399   -0.8299 H   0  0  0  0  0  0  0  0  0  0  0  0
   -2.6547   -1.2091    0.9084 H   0  0  0  0  0  0  0  0  0  0  0  0
   -0.1738   -0.6875    0.0185 C   0  0  0  0  0  0  0  0  0  0  0  0
   -1.3542    0.8334    0.9014 H   0  0  0  0  0  0  0  0  0  0  0  0
   -1.4179    0.8010   -0.8447 H   0  0  0  0  0  0  0  0  0  0  0  0
   -0.1644   -1.2770    0.9173 H   0  0  0  0  0  0  0  0  0  0  0  0
    0.7349   -0.1207    0.0507 H   0  0  0  0  0  0  0  0  0  0  0  0
   -0.1853   -1.3766   -0.8501 H   0  0  0  0  0  0  0  0  0  0  0  0
  1  2  1  0  0  0  0
  1  3  1  0  0  0  0
  1  5  1  0  0  0  0
  2  8  1  0  0  0  0
  4  1  1  0  0  0  0
  6  2  1  0  0  0  0
  6 10  1  0  0  0  0
  7  2  1  0  0  0  0
  9  6  1  0  0  0  0
  9 13  1  0  0  0  0
  9 12  1  0  0  0  0
 11  6  1  0  0  0  0
 14  9  1  0  0  0  0
M  END
$$$$
