14
butane_opt
C  -3.929903   0.257164   0.029841
C  -2.703346  -0.602741   0.033540
H  -4.882020  -0.356928  -0.096146
H  -3.903840   0.753758  -0.796051
H  -3.997073   1.005468   0.927063
C  -1.413335   0.181542   0.001886
H  -2.719367  -1.238869  -0.807508
H  -2.701124  -1.229226   0.913458
C  -0.160539  -0.697422   0.041466
H  -1.425138   0.837397   0.812026
H  -1.414561   0.880294  -0.921058
H  -0.063429  -1.349421   0.967867
H   0.739651  -0.130415  -0.015842
H  -0.168330  -1.321606  -0.806921
