14
butane_opt
C  -3.924671   0.266781  -0.016086
C  -2.699793  -0.615323   0.057283
H  -4.841466  -0.364703   0.142177
H  -3.994084   0.981007  -0.952389
H  -3.918858   0.811289   0.782450
C  -1.413581   0.185800   0.056384
H  -2.730257  -1.253964  -0.771781
H  -2.756961  -1.274913   0.963637
C  -0.164656  -0.699348   0.002724
H  -1.379526   0.907042   0.924284
H  -1.420667   0.845272  -0.841077
H  -0.142980  -1.236589   0.844633
H   0.741346  -0.107898   0.017925
H  -0.146112  -1.436450  -0.894238
