butane_opt
 OpenBabel08242015413D

 14 13  0  0  0  0  0  0  0  0999 V2000
   -3.9422    0.2687   -0.0066 C   0  0  0  0  0  0  0  0  0  0  0  0
   -2.6989   -0.6279    0.0721 C   0  0  0  0  0  0  0  0  0  0  0  0
   -4.8001   -0.2798    0.0663 H   0  0  0  0  0  0  0  0  0  0  0  0
   -3.9272    0.9517   -0.9385 H   0  0  0  0  0  0  0  0  0  0  0  0
   -3.9956    0.9149    0.8425 H   0  0  0  0  0  0  0  0  0  0  0  0
   -1.4079    0.1788    0.0317 C   0  0  0  0  0  0  0  0  0  0  0  0
   -2.7132   -1.2926   -0.7910 H   0  0  0  0  0  0  0  0  0  0  0  0
   -2.7412   -1.2716    0.9692 H   0  0  0  0  0  0  0  0  0  0  0  0
   -0.1666   -0.6867    0.0053 C   0  0  0  0  0  0  0  0  0  0  0  0
   -1.3584    0.8476    0.8910 H   0  0  0  0  0  0  0  0  0  0  0  0
   -1.3855    0.8071   -0.8786 H   0  0  0  0  0  0  0  0  0  0  0  0
   -0.1794   -1.2338    0.8724 H   0  0  0  0  0  0  0  0  0  0  0  0
    0.7611   -0.0674    0.1083 H   0  0  0  0  0  0  0  0  0  0  0  0
   -0.1101   -1.4354   -0.9390 H   0  0  0  0  0  0  0  0  0  0  0  0
  1  3  1  0  0  0  0
  1  2  1  0  0  0  0
  1  5  1  0  0  0  0
  2  8  1  0  0  0  0
  4  1  1  0  0  0  0
  6  2  1  0  0  0  0
  6 10  1  0  0  0  0
  7  2  1  0  0  0  0
  9  6  1  0  0  0  0
  9 13  1  0  0  0  0
  9 12  1  0  0  0  0
 11  6  1  0  0  0  0
 14  9  1  0  0  0  0
M  END
$$$$
