14
butane_opt
C  -3.937057   0.276227   0.007539
C  -2.687977  -0.631259   0.053989
H  -4.807178  -0.270134   0.082418
H  -4.011851   0.959210  -0.942050
H  -3.931103   0.860503   0.834393
C  -1.395155   0.175929   0.020845
H  -2.715519  -1.293632  -0.792576
H  -2.721616  -1.282136   0.961304
C  -0.182166  -0.686556   0.014931
H  -1.411497   0.863479   0.847585
H  -1.410568   0.772405  -0.843057
H  -0.240453  -1.205974   0.849679
H   0.765811  -0.070604   0.130207
H  -0.117549  -1.404904  -0.874720
