butane_opt
 OpenBabel08242015413D

 14 13  0  0  0  0  0  0  0  0999 V2000
   -3.9373    0.2702    0.0550 C   0  0  0  0  0  0  0  0  0  0  0  0
   -2.6891   -0.6241   -0.0153 C   0  0  0  0  0  0  0  0  0  0  0  0
   -4.8728   -0.3274    0.1932 H   0  0  0  0  0  0  0  0  0  0  0  0
   -4.0769    0.9594   -0.8831 H   0  0  0  0  0  0  0  0  0  0  0  0
   -3.9092    0.9149    0.8921 H   0  0  0  0  0  0  0  0  0  0  0  0
   -1.4092    0.1722   -0.0088 C   0  0  0  0  0  0  0  0  0  0  0  0
   -2.7002   -1.3404   -0.8961 H   0  0  0  0  0  0  0  0  0  0  0  0
   -2.6933   -1.2206    0.8307 H   0  0  0  0  0  0  0  0  0  0  0  0
   -0.1676   -0.6902    0.0694 C   0  0  0  0  0  0  0  0  0  0  0  0
   -1.4418    0.8322    0.8206 H   0  0  0  0  0  0  0  0  0  0  0  0
   -1.3433    0.8490   -0.9381 H   0  0  0  0  0  0  0  0  0  0  0  0
   -0.1983   -1.3106    0.9884 H   0  0  0  0  0  0  0  0  0  0  0  0
    0.8077   -0.0490    0.0007 H   0  0  0  0  0  0  0  0  0  0  0  0
   -0.1553   -1.3116   -0.7761 H   0  0  0  0  0  0  0  0  0  0  0  0
  1  3  1  0  0  0  0
  1  5  1  0  0  0  0
  2  6  1  0  0  0  0
  2  1  1  0  0  0  0
  2  8  1  0  0  0  0
  4  1  1  0  0  0  0
  6  9  1  0  0  0  0
  6 10  1  0  0  0  0
  7  2  1  0  0  0  0
  9 12  1  0  0  0  0
 11  6  1  0  0  0  0
 13  9  1  0  0  0  0
 14  9  1  0  0  0  0
M  END
$$$$
