14
butane_opt
C  -3.946139   0.277211  -0.016472
C  -2.693244  -0.624914   0.071244
H  -4.874661  -0.342994   0.037677
H  -3.906520   0.944287  -0.952352
H  -4.006876   0.936557   0.799787
C  -1.402983   0.168286   0.058814
H  -2.663370  -1.328318  -0.814979
H  -2.702575  -1.249448   0.973506
C  -0.167691  -0.685943  -0.007747
H  -1.332042   0.888524   0.952867
H  -1.381570   0.765793  -0.800883
H  -0.145951  -1.352156   0.928811
H   0.756161  -0.059287  -0.112124
H  -0.241910  -1.290342  -0.838408
