14
butane_opt
C  -3.931465   0.260562   0.048639
C  -2.702392  -0.609633   0.002186
H  -4.875102  -0.362183   0.161604
H  -4.011972   0.891279  -0.849983
H  -3.901022   0.866200   0.905805
C  -1.411079   0.197251  -0.021789
H  -2.728181  -1.313669  -0.890534
H  -2.683143  -1.196785   0.860794
C  -0.167114  -0.708725   0.054073
H  -1.395845   0.897780   0.848897
H  -1.333324   0.856587  -0.934284
H  -0.193591  -1.352472   0.979013
H   0.721318  -0.110745   0.124671
H  -0.067634  -1.331869  -0.761168
