butane_opt
 OpenBabel08242015413D

 14 13  0  0  0  0  0  0  0  0999 V2000
   -3.9403    0.2616    0.0482 C   0  0  0  0  0  0  0  0  0  0  0  0
   -2.7072   -0.6094    0.0112 C   0  0  0  0  0  0  0  0  0  0  0  0
   -4.8773   -0.3714    0.0830 H   0  0  0  0  0  0  0  0  0  0  0  0
   -4.0185    0.8383   -0.8507 H   0  0  0  0  0  0  0  0  0  0  0  0
   -3.9252    0.9052    0.9031 H   0  0  0  0  0  0  0  0  0  0  0  0
   -1.4015    0.2101   -0.0261 C   0  0  0  0  0  0  0  0  0  0  0  0
   -2.7526   -1.2634   -0.8277 H   0  0  0  0  0  0  0  0  0  0  0  0
   -2.7453   -1.2538    0.9073 H   0  0  0  0  0  0  0  0  0  0  0  0
   -0.1509   -0.7089    0.0634 C   0  0  0  0  0  0  0  0  0  0  0  0
   -1.4262    0.8162    0.8010 H   0  0  0  0  0  0  0  0  0  0  0  0
   -1.3654    0.8510   -0.9385 H   0  0  0  0  0  0  0  0  0  0  0  0
   -0.1870   -1.2403    0.9061 H   0  0  0  0  0  0  0  0  0  0  0  0
    0.7230   -0.1473    0.1261 H   0  0  0  0  0  0  0  0  0  0  0  0
   -0.0416   -1.4528   -0.8410 H   0  0  0  0  0  0  0  0  0  0  0  0
  1  3  1  0  0  0  0
  1  5  1  0  0  0  0
  2  1  1  0  0  0  0
  2  8  1  0  0  0  0
  4  1  1  0  0  0  0
  6  2  1  0  0  0  0
  6  9  1  0  0  0  0
  6 10  1  0  0  0  0
  7  2  1  0  0  0  0
  9 13  1  0  0  0  0
  9 12  1  0  0  0  0
 11  6  1  0  0  0  0
 14  9  1  0  0  0  0
M  END
$$$$
