butane_opt
 OpenBabel08242015413D

 14 13  0  0  0  0  0  0  0  0999 V2000
   -3.9634    0.2743    0.0600 C   0  0  0  0  0  0  0  0  0  0  0  0
   -2.6913   -0.6362   -0.0053 C   0  0  0  0  0  0  0  0  0  0  0  0
   -4.8590   -0.3005    0.1063 H   0  0  0  0  0  0  0  0  0  0  0  0
   -4.0335    0.9292   -0.8695 H   0  0  0  0  0  0  0  0  0  0  0  0
   -3.9844    0.9302    0.9128 H   0  0  0  0  0  0  0  0  0  0  0  0
   -1.3961    0.1797   -0.0216 C   0  0  0  0  0  0  0  0  0  0  0  0
   -2.7200   -1.3626   -0.8919 H   0  0  0  0  0  0  0  0  0  0  0  0
   -2.6650   -1.2230    0.8351 H   0  0  0  0  0  0  0  0  0  0  0  0
   -0.1628   -0.6822    0.0629 C   0  0  0  0  0  0  0  0  0  0  0  0
   -1.3938    0.8581    0.8170 H   0  0  0  0  0  0  0  0  0  0  0  0
   -1.3231    0.8320   -0.9258 H   0  0  0  0  0  0  0  0  0  0  0  0
   -0.1330   -1.3677    1.0011 H   0  0  0  0  0  0  0  0  0  0  0  0
    0.7734   -0.0680    0.0487 H   0  0  0  0  0  0  0  0  0  0  0  0
   -0.1251   -1.3183   -0.7398 H   0  0  0  0  0  0  0  0  0  0  0  0
  1  3  1  0  0  0  0
  1  5  1  0  0  0  0
  2  1  1  0  0  0  0
  2  8  1  0  0  0  0
  4  1  1  0  0  0  0
  6  2  1  0  0  0  0
  6  9  1  0  0  0  0
  6 10  1  0  0  0  0
  7  2  1  0  0  0  0
  9 12  1  0  0  0  0
 11  6  1  0  0  0  0
 13  9  1  0  0  0  0
 14  9  1  0  0  0  0
M  END
$$$$
