14
butane_opt
C  -3.947914   0.274296  -0.003427
C  -2.685278  -0.633811   0.072450
H  -4.826357  -0.304952   0.040201
H  -3.941274   0.974601  -0.974003
H  -3.974128   0.889704   0.821347
C  -1.413812   0.171101   0.018912
H  -2.694799  -1.264063  -0.731222
H  -2.678132  -1.307151   0.993222
C  -0.173254  -0.677867   0.010307
H  -1.355755   0.922387   0.953856
H  -1.371547   0.758087  -0.852989
H  -0.211695  -1.202575   0.824591
H   0.762998  -0.060945   0.102411
H  -0.102100  -1.473561  -0.942982
