14
butane_opt
C  -3.946272   0.252265   0.049976
C  -2.709195  -0.602843   0.011800
H  -4.856166  -0.335844   0.024308
H  -3.974962   0.825860  -0.820292
H  -3.988978   0.990475   0.955808
C  -1.402320   0.193374  -0.028314
H  -2.711642  -1.278392  -0.830660
H  -2.721988  -1.222998   0.899091
C  -0.142592  -0.700710   0.061588
H  -1.456963   0.781380   0.786664
H  -1.367789   0.865242  -0.951413
H  -0.156860  -1.304451   0.957987
H   0.750485  -0.088564   0.108977
H  -0.127259  -1.413771  -0.824892
