14
butane_opt
C  -3.948614   0.275882  -0.018082
C  -2.700293  -0.625391   0.066767
H  -4.869545  -0.324369   0.058426
H  -3.988568   0.966448  -0.960646
H  -3.975272   0.880913   0.809157
C  -1.402027   0.166304   0.059461
H  -2.611280  -1.340879  -0.769619
H  -2.736052  -1.233741   0.954406
C  -0.163194  -0.680322  -0.001521
H  -1.338344   0.883023   0.948441
H  -1.402327   0.796102  -0.834079
H  -0.055719  -1.335078   0.914234
H   0.750914  -0.058835  -0.071467
H  -0.234238  -1.339755  -0.886937
