14
butane_opt
C  -3.944649   0.258509   0.002128
C  -2.706145  -0.609289   0.060824
H  -4.892243  -0.371665   0.038715
H  -3.925213   0.880627  -0.895771
H  -4.017036   0.907877   0.858567
C  -1.411605   0.197467   0.015189
H  -2.744745  -1.245685  -0.780392
H  -2.768868  -1.281630   1.000261
C  -0.136912  -0.707042   0.016272
H  -1.351816   0.882043   0.887936
H  -1.464605   0.844086  -0.881954
H  -0.148062  -1.204101   0.851350
H   0.743771  -0.134551   0.124511
H  -0.055395  -1.436872  -0.898965
