14
butane_opt
C  -3.948683   0.276785   0.051937
C  -2.705223  -0.637032   0.003204
H  -4.854179  -0.283702   0.039404
H  -4.017804   0.877405  -0.840065
H  -4.034042   0.940882   0.904347
C  -1.399033   0.181526  -0.008277
H  -2.719576  -1.378694  -0.879860
H  -2.667003  -1.193013   0.815082
C  -0.150819  -0.689745   0.058912
H  -1.403759   0.834469   0.837970
H  -1.360349   0.837192  -0.906433
H  -0.148385  -1.372094   1.019781
H   0.779820  -0.070851  -0.099897
H  -0.153593  -1.235576  -0.713711
