butane_opt
 OpenBabel08242015413D

 14 13  0  0  0  0  0  0  0  0999 V2000
   -3.9414    0.2605   -0.0123 C   0  0  0  0  0  0  0  0  0  0  0  0
   -2.6901   -0.6116    0.0667 C   0  0  0  0  0  0  0  0  0  0  0  0
   -4.8506   -0.3240   -0.0764 H   0  0  0  0  0  0  0  0  0  0  0  0
   -3.9591    0.8286   -0.8548 H   0  0  0  0  0  0  0  0  0  0  0  0
   -3.9893    1.0027    0.9060 H   0  0  0  0  0  0  0  0  0  0  0  0
   -1.4131    0.1766    0.0326 C   0  0  0  0  0  0  0  0  0  0  0  0
   -2.7070   -1.2266   -0.7364 H   0  0  0  0  0  0  0  0  0  0  0  0
   -2.6965   -1.2638    0.9761 H   0  0  0  0  0  0  0  0  0  0  0  0
   -0.1660   -0.6940    0.0121 C   0  0  0  0  0  0  0  0  0  0  0  0
   -1.3749    0.8657    0.8991 H   0  0  0  0  0  0  0  0  0  0  0  0
   -1.4153    0.7794   -0.8635 H   0  0  0  0  0  0  0  0  0  0  0  0
   -0.1130   -1.3149    0.9069 H   0  0  0  0  0  0  0  0  0  0  0  0
    0.7989   -0.0392   -0.0693 H   0  0  0  0  0  0  0  0  0  0  0  0
   -0.1930   -1.3547   -0.8361 H   0  0  0  0  0  0  0  0  0  0  0  0
  1  2  1  0  0  0  0
  1  5  1  0  0  0  0
  2  8  1  0  0  0  0
  3  1  1  0  0  0  0
  4  1  1  0  0  0  0
  6  2  1  0  0  0  0
  6 10  1  0  0  0  0
  7  2  1  0  0  0  0
  9  6  1  0  0  0  0
  9 12  1  0  0  0  0
 11  6  1  0  0  0  0
 13  9  1  0  0  0  0
 14  9  1  0  0  0  0
M  END
$$$$
