butane_opt
 OpenBabel08242015413D

 14 13  0  0  0  0  0  0  0  0999 V2000
   -3.9360    0.2581    0.0528 C   0  0  0  0  0  0  0  0  0  0  0  0
   -2.6946   -0.5995    0.0090 C   0  0  0  0  0  0  0  0  0  0  0  0
   -4.8486   -0.3445    0.0412 H   0  0  0  0  0  0  0  0  0  0  0  0
   -3.9589    0.8318   -0.8114 H   0  0  0  0  0  0  0  0  0  0  0  0
   -3.9613    0.9672    0.9381 H   0  0  0  0  0  0  0  0  0  0  0  0
   -1.4110    0.1763   -0.0352 C   0  0  0  0  0  0  0  0  0  0  0  0
   -2.7752   -1.2687   -0.8407 H   0  0  0  0  0  0  0  0  0  0  0  0
   -2.7041   -1.2734    0.9159 H   0  0  0  0  0  0  0  0  0  0  0  0
   -0.1567   -0.6985    0.0611 C   0  0  0  0  0  0  0  0  0  0  0  0
   -1.4640    0.8697    0.8125 H   0  0  0  0  0  0  0  0  0  0  0  0
   -1.3621    0.8389   -0.9464 H   0  0  0  0  0  0  0  0  0  0  0  0
   -0.2427   -1.2527    0.9675 H   0  0  0  0  0  0  0  0  0  0  0  0
    0.7456   -0.1040    0.1092 H   0  0  0  0  0  0  0  0  0  0  0  0
   -0.0690   -1.3804   -0.8047 H   0  0  0  0  0  0  0  0  0  0  0  0
  1  5  1  0  0  0  0
  2  1  1  0  0  0  0
  2  8  1  0  0  0  0
  3  1  1  0  0  0  0
  4  1  1  0  0  0  0
  6  2  1  0  0  0  0
  6  9  1  0  0  0  0
  6 10  1  0  0  0  0
  7  2  1  0  0  0  0
  9 13  1  0  0  0  0
  9 12  1  0  0  0  0
 11  6  1  0  0  0  0
 14  9  1  0  0  0  0
M  END
$$$$
