14
butane_opt
C  -3.952302   0.276099   0.040223
C  -2.693285  -0.634350   0.027008
H  -4.855610  -0.291303  -0.101763
H  -3.954223   0.778037  -0.765938
H  -4.087121   1.052100   0.964733
C  -1.394236   0.180140  -0.022859
H  -2.719377  -1.344055  -0.842396
H  -2.688012  -1.291243   0.954770
C  -0.161006  -0.685982   0.049366
H  -1.392248   0.866837   0.804613
H  -1.396708   0.829779  -0.916053
H  -0.142268  -1.343960   0.991100
H   0.772621  -0.078755   0.017585
H  -0.149704  -1.281256  -0.771370
