butane_opt
 OpenBabel08242015413D

 14 13  0  0  0  0  0  0  0  0999 V2000
   -3.9454    0.2616    0.0436 C   0  0  0  0  0  0  0  0  0  0  0  0
   -2.7072   -0.6154   -0.0014 C   0  0  0  0  0  0  0  0  0  0  0  0
   -4.8659   -0.3160    0.0826 H   0  0  0  0  0  0  0  0  0  0  0  0
   -4.0596    0.8689   -0.8403 H   0  0  0  0  0  0  0  0  0  0  0  0
   -3.9417    0.9680    0.9071 H   0  0  0  0  0  0  0  0  0  0  0  0
   -1.4037    0.1803   -0.0024 C   0  0  0  0  0  0  0  0  0  0  0  0
   -2.7400   -1.2715   -0.8636 H   0  0  0  0  0  0  0  0  0  0  0  0
   -2.7078   -1.2111    0.8515 H   0  0  0  0  0  0  0  0  0  0  0  0
   -0.1499   -0.6969    0.0534 C   0  0  0  0  0  0  0  0  0  0  0  0
   -1.3634    0.8489    0.8381 H   0  0  0  0  0  0  0  0  0  0  0  0
   -1.3726    0.8379   -0.9013 H   0  0  0  0  0  0  0  0  0  0  0  0
   -0.1175   -1.4098    1.0061 H   0  0  0  0  0  0  0  0  0  0  0  0
    0.7797   -0.0730   -0.0121 H   0  0  0  0  0  0  0  0  0  0  0  0
   -0.1566   -1.2721   -0.7307 H   0  0  0  0  0  0  0  0  0  0  0  0
  1  3  1  0  0  0  0
  1  5  1  0  0  0  0
  2  1  1  0  0  0  0
  2  8  1  0  0  0  0
  4  1  1  0  0  0  0
  6  2  1  0  0  0  0
  6  9  1  0  0  0  0
  6 10  1  0  0  0  0
  7  2  1  0  0  0  0
  9 12  1  0  0  0  0
 11  6  1  0  0  0  0
 13  9  1  0  0  0  0
 14  9  1  0  0  0  0
M  END
$$$$
