14
butane_opt
C  -3.949947   0.270593   0.039792
C  -2.696429  -0.636001   0.000080
H  -4.833274  -0.306695   0.023484
H  -4.051000   0.870261  -0.834761
H  -3.942088   1.021749   0.943635
C  -1.410059   0.176204  -0.001151
H  -2.760109  -1.304711  -0.869155
H  -2.660466  -1.240068   0.881347
C  -0.149050  -0.681146   0.058249
H  -1.394002   0.878934   0.851279
H  -1.346103   0.792644  -0.911195
H  -0.095118  -1.420394   1.047967
H   0.746360  -0.093873  -0.113464
H  -0.221038  -1.224066  -0.731515
