14
butane_opt
C  -3.949749   0.271690   0.047086
C  -2.691779  -0.617446   0.006756
H  -4.868258  -0.349481   0.064789
H  -4.026344   0.825316  -0.788596
H  -3.909270   0.994776   0.961632
C  -1.403161   0.170406  -0.040670
H  -2.769124  -1.263420  -0.827375
H  -2.653576  -1.257326   0.905294
C  -0.160741  -0.687417   0.072390
H  -1.420505   0.812391   0.773879
H  -1.340611   0.836707  -0.935129
H  -0.231000  -1.230963   0.922956
H   0.731109  -0.102470   0.126676
H  -0.066964  -1.390715  -0.800782
