14
butane_opt
C  -3.943801   0.263352  -0.006103
C  -2.703235  -0.616480   0.067916
H  -4.847516  -0.327103   0.047283
H  -3.954666   0.909905  -0.924748
H  -3.976541   0.881765   0.819212
C  -1.404145   0.195351   0.024641
H  -2.728471  -1.268589  -0.751430
H  -2.738025  -1.271557   0.981355
C  -0.152039  -0.703814   0.016796
H  -1.359473   0.883918   0.909503
H  -1.387477   0.831317  -0.877995
H  -0.123205  -1.211723   0.824132
H   0.728497  -0.110775   0.095507
H  -0.192287  -1.456067  -0.932738
