14
butane_opt
C  -3.942745   0.249915   0.049319
C  -2.701763  -0.616274  -0.006510
H  -4.850320  -0.346546   0.115761
H  -4.059855   0.926742  -0.867017
H  -3.902810   0.936398   0.911897
C  -1.405366   0.205723  -0.019352
H  -2.747652  -1.308807  -0.865939
H  -2.697942  -1.203234   0.855438
C  -0.145869  -0.704835   0.065499
H  -1.468572   0.894078   0.863711
H  -1.380620   0.809780  -0.882552
H  -0.116942  -1.375935   1.024830
H   0.730439  -0.123116  -0.034143
H  -0.168648  -1.299153  -0.752161
