14
butane_opt
C  -3.936906   0.255293  -0.000289
C  -2.696884  -0.597962   0.058339
H  -4.850532  -0.352943   0.090621
H  -3.971376   0.897709  -0.951188
H  -3.941024   0.851285   0.816300
C  -1.413617   0.195662   0.033451
H  -2.696037  -1.259800  -0.770431
H  -2.741764  -1.225453   0.960721
C  -0.166078  -0.705731   0.015803
H  -1.406306   0.816669   0.870023
H  -1.390451   0.824242  -0.875723
H  -0.140827  -1.228303   0.848352
H   0.780642  -0.073181   0.062807
H  -0.105774  -1.483600  -0.916796
