butane_opt
 OpenBabel08242015413D

 14 13  0  0  0  0  0  0  0  0999 V2000
   -3.9337    0.2541   -0.0073 C   0  0  0  0  0  0  0  0  0  0  0  0
   -2.7116   -0.6160    0.0778 C   0  0  0  0  0  0  0  0  0  0  0  0
   -4.8529   -0.3237   -0.0199 H   0  0  0  0  0  0  0  0  0  0  0  0
   -3.9118    0.9032   -0.9577 H   0  0  0  0  0  0  0  0  0  0  0  0
   -4.0065    0.9072    0.8177 H   0  0  0  0  0  0  0  0  0  0  0  0
   -1.4141    0.2072    0.0365 C   0  0  0  0  0  0  0  0  0  0  0  0
   -2.7413   -1.2699   -0.7382 H   0  0  0  0  0  0  0  0  0  0  0  0
   -2.7319   -1.2310    0.9649 H   0  0  0  0  0  0  0  0  0  0  0  0
   -0.1480   -0.7067    0.0015 C   0  0  0  0  0  0  0  0  0  0  0  0
   -1.3863    0.9072    0.9087 H   0  0  0  0  0  0  0  0  0  0  0  0
   -1.3803    0.8110   -0.8407 H   0  0  0  0  0  0  0  0  0  0  0  0
   -0.0992   -1.2893    0.8658 H   0  0  0  0  0  0  0  0  0  0  0  0
    0.7532   -0.1302    0.0224 H   0  0  0  0  0  0  0  0  0  0  0  0
   -0.1719   -1.4258   -0.8955 H   0  0  0  0  0  0  0  0  0  0  0  0
  1  2  1  0  0  0  0
  1  5  1  0  0  0  0
  2  8  1  0  0  0  0
  3  1  1  0  0  0  0
  4  1  1  0  0  0  0
  6  2  1  0  0  0  0
  6 10  1  0  0  0  0
  7  2  1  0  0  0  0
  9 13  1  0  0  0  0
  9  6  1  0  0  0  0
  9 12  1  0  0  0  0
 11  6  1  0  0  0  0
 14  9  1  0  0  0  0
M  END
$$$$
