14
butane_opt
C  -3.958856   0.277562   0.036026
C  -2.703137  -0.638884   0.002784
H  -4.844428  -0.283950   0.204403
H  -4.057604   0.974061  -0.920295
H  -3.883301   0.851284   0.861115
C  -1.398453   0.188179   0.000578
H  -2.719143  -1.328278  -0.857094
H  -2.677888  -1.240715   0.886263
C  -0.160896  -0.681578   0.044718
H  -1.367205   0.865916   0.878637
H  -1.318562   0.775310  -0.861664
H  -0.197253  -1.347746   0.988728
H   0.754413  -0.101673   0.039127
H  -0.066663  -1.368012  -0.803780
