14
butane_opt
C  -3.937021   0.258078   0.044611
C  -2.703055  -0.614160   0.032735
H  -4.860264  -0.343299  -0.075866
H  -3.902994   0.757232  -0.794029
H  -3.991128   1.041627   0.964919
C  -1.406850   0.198743  -0.028671
H  -2.763311  -1.315329  -0.866607
H  -2.628932  -1.189693   0.871623
C  -0.160921  -0.700268   0.057172
H  -1.403203   0.840025   0.779144
H  -1.370614   0.870723  -0.957509
H  -0.154592  -1.393340   1.002117
H   0.718598  -0.102037   0.049666
H  -0.164233  -1.359953  -0.786226
