14
butane_opt
C  -3.926956   0.253356  -0.012003
C  -2.702399  -0.601108   0.051963
H  -4.841976  -0.372101   0.056652
H  -3.958171   0.867649  -0.907793
H  -3.966944   0.901984   0.825355
C  -1.409803   0.193743   0.043729
H  -2.706619  -1.252181  -0.784696
H  -2.683425  -1.252400   0.982695
C  -0.172223  -0.704166   0.012599
H  -1.380247   0.953158   0.960069
H  -1.387569   0.811476  -0.826978
H  -0.051882  -1.349283   0.925876
H   0.714051  -0.140636  -0.131865
H  -0.211510  -1.350660  -0.819075
