14
butane_opt
C  -3.958711   0.262870   0.048432
C  -2.715432  -0.609347   0.009543
H  -4.880168  -0.343675  -0.020851
H  -3.932393   0.802426  -0.810142
H  -3.937865   0.981536   0.937874
C  -1.392447   0.192531  -0.017850
H  -2.733683  -1.322900  -0.869121
H  -2.734919  -1.210240   0.883312
C  -0.143352  -0.705142   0.054107
H  -1.398255   0.900691   0.876426
H  -1.393096   0.828442  -0.921146
H  -0.101513  -1.457737   1.025710
H   0.732247  -0.107620  -0.046009
H  -0.127841  -1.235860  -0.724405
