14
butane_opt
C  -3.936056   0.272854   0.017671
C  -2.690983  -0.632495   0.035893
H  -4.836432  -0.279504   0.050969
H  -3.987494   0.841578  -0.836853
H  -3.926244   0.995984   0.920771
C  -1.408483   0.170234  -0.004239
H  -2.705971  -1.272863  -0.786418
H  -2.685859  -1.313964   0.939994
C  -0.170617  -0.681475   0.034028
H  -1.417162   0.855312   0.856605
H  -1.417628   0.867206  -0.923431
H  -0.207854  -1.249335   0.923055
H   0.758759  -0.068704   0.134791
H  -0.134374  -1.396026  -0.838078
