14
butane_opt
C  -3.941829   0.264459  -0.007917
C  -2.695370  -0.602665   0.048918
H  -4.891115  -0.385281   0.194971
H  -3.972099   0.974095  -0.981171
H  -3.848301   0.831659   0.802141
C  -1.409997   0.184695   0.039227
H  -2.680227  -1.286974  -0.801789
H  -2.778514  -1.267540   0.982597
C  -0.165539  -0.698415   0.014166
H  -1.378230   0.912161   0.904295
H  -1.401094   0.778273  -0.812819
H  -0.119662  -1.267324   0.875308
H   0.752161  -0.116500   0.034522
H  -0.153338  -1.419799  -0.900577
