butane_opt
 OpenBabel08242015413D

 14 13  0  0  0  0  0  0  0  0999 V2000
   -3.9472    0.2615   -0.0036 C   0  0  0  0  0  0  0  0  0  0  0  0
   -2.7002   -0.6129    0.0592 C   0  0  0  0  0  0  0  0  0  0  0  0
   -4.8419   -0.3101   -0.0217 H   0  0  0  0  0  0  0  0  0  0  0  0
   -3.9180    0.8845   -0.9125 H   0  0  0  0  0  0  0  0  0  0  0  0
   -4.0160    0.8817    0.8084 H   0  0  0  0  0  0  0  0  0  0  0  0
   -1.4014    0.1926    0.0455 C   0  0  0  0  0  0  0  0  0  0  0  0
   -2.7346   -1.2773   -0.7767 H   0  0  0  0  0  0  0  0  0  0  0  0
   -2.7428   -1.2406    0.9737 H   0  0  0  0  0  0  0  0  0  0  0  0
   -0.1625   -0.6995    0.0102 C   0  0  0  0  0  0  0  0  0  0  0  0
   -1.3289    0.9006    0.9009 H   0  0  0  0  0  0  0  0  0  0  0  0
   -1.4180    0.7872   -0.8093 H   0  0  0  0  0  0  0  0  0  0  0  0
   -0.0680   -1.3400    0.9152 H   0  0  0  0  0  0  0  0  0  0  0  0
    0.7321   -0.1188   -0.1072 H   0  0  0  0  0  0  0  0  0  0  0  0
   -0.1533   -1.3415   -0.8691 H   0  0  0  0  0  0  0  0  0  0  0  0
  1  2  1  0  0  0  0
  1  5  1  0  0  0  0
  2  8  1  0  0  0  0
  3  1  1  0  0  0  0
  4  1  1  0  0  0  0
  6  2  1  0  0  0  0
  6 10  1  0  0  0  0
  7  2  1  0  0  0  0
  9  6  1  0  0  0  0
  9 12  1  0  0  0  0
 11  6  1  0  0  0  0
 13  9  1  0  0  0  0
 14  9  1  0  0  0  0
M  END
$$$$
