butane_opt
 OpenBabel08242015413D

 14 13  0  0  0  0  0  0  0  0999 V2000
   -3.9439    0.2665   -0.0043 C   0  0  0  0  0  0  0  0  0  0  0  0
   -2.6988   -0.6106    0.0667 C   0  0  0  0  0  0  0  0  0  0  0  0
   -4.8623   -0.3218   -0.0480 H   0  0  0  0  0  0  0  0  0  0  0  0
   -3.8871    0.8541   -0.8983 H   0  0  0  0  0  0  0  0  0  0  0  0
   -4.0404    0.9838    0.8600 H   0  0  0  0  0  0  0  0  0  0  0  0
   -1.3943    0.1678    0.0346 C   0  0  0  0  0  0  0  0  0  0  0  0
   -2.6353   -1.2425   -0.7395 H   0  0  0  0  0  0  0  0  0  0  0  0
   -2.7170   -1.2787    0.9987 H   0  0  0  0  0  0  0  0  0  0  0  0
   -0.1683   -0.6899    0.0093 C   0  0  0  0  0  0  0  0  0  0  0  0
   -1.3552    0.8563    0.8711 H   0  0  0  0  0  0  0  0  0  0  0  0
   -1.3898    0.7830   -0.8440 H   0  0  0  0  0  0  0  0  0  0  0  0
   -0.1566   -1.2562    0.8545 H   0  0  0  0  0  0  0  0  0  0  0  0
    0.7192   -0.0975   -0.0274 H   0  0  0  0  0  0  0  0  0  0  0  0
   -0.2232   -1.3653   -0.8574 H   0  0  0  0  0  0  0  0  0  0  0  0
  1  2  1  0  0  0  0
  1  5  1  0  0  0  0
  2  8  1  0  0  0  0
  3  1  1  0  0  0  0
  4  1  1  0  0  0  0
  6  2  1  0  0  0  0
  6 10  1  0  0  0  0
  7  2  1  0  0  0  0
  9  6  1  0  0  0  0
  9 12  1  0  0  0  0
 11  6  1  0  0  0  0
 13  9  1  0  0  0  0
 14  9  1  0  0  0  0
M  END
$$$$
