14
butane_opt
C  -3.949424   0.252990   0.041139
C  -2.704895  -0.607647   0.021800
H  -4.866778  -0.354203  -0.089283
H  -3.934438   0.769333  -0.811637
H  -3.981812   0.988253   0.964962
C  -1.410793   0.215560  -0.010041
H  -2.745770  -1.288262  -0.801806
H  -2.696674  -1.233809   0.903951
C  -0.146518  -0.707833   0.057556
H  -1.375232   0.798053   0.775085
H  -1.363647   0.893592  -0.950419
H  -0.102203  -1.345560   0.958593
H   0.722134  -0.155059   0.004853
H  -0.130371  -1.388192  -0.833568
