butane_opt
 OpenBabel08242015413D

 14 13  0  0  0  0  0  0  0  0999 V2000
   -3.9287    0.2442   -0.0086 C   0  0  0  0  0  0  0  0  0  0  0  0
   -2.6996   -0.6004    0.0504 C   0  0  0  0  0  0  0  0  0  0  0  0
   -4.8305   -0.3347    0.2138 H   0  0  0  0  0  0  0  0  0  0  0  0
   -3.9833    1.0377   -1.0198 H   0  0  0  0  0  0  0  0  0  0  0  0
   -3.8763    0.7991    0.7831 H   0  0  0  0  0  0  0  0  0  0  0  0
   -1.4267    0.1969    0.0505 C   0  0  0  0  0  0  0  0  0  0  0  0
   -2.6876   -1.2837   -0.8064 H   0  0  0  0  0  0  0  0  0  0  0  0
   -2.7864   -1.2483    0.9549 H   0  0  0  0  0  0  0  0  0  0  0  0
   -0.1564   -0.7027    0.0066 C   0  0  0  0  0  0  0  0  0  0  0  0
   -1.3840    0.9222    0.9246 H   0  0  0  0  0  0  0  0  0  0  0  0
   -1.4237    0.8106   -0.8281 H   0  0  0  0  0  0  0  0  0  0  0  0
   -0.0966   -1.2601    0.8521 H   0  0  0  0  0  0  0  0  0  0  0  0
    0.7368   -0.1245    0.0407 H   0  0  0  0  0  0  0  0  0  0  0  0
   -0.1512   -1.4424   -0.8755 H   0  0  0  0  0  0  0  0  0  0  0  0
  1  2  1  0  0  0  0
  1  3  1  0  0  0  0
  1  5  1  0  0  0  0
  2  6  1  0  0  0  0
  2  8  1  0  0  0  0
  4  1  1  0  0  0  0
  6 10  1  0  0  0  0
  7  2  1  0  0  0  0
  9 13  1  0  0  0  0
  9  6  1  0  0  0  0
  9 12  1  0  0  0  0
 11  6  1  0  0  0  0
 14  9  1  0  0  0  0
M  END
$$$$
