14
butane_opt
C  -3.946755   0.257853   0.034964
C  -2.710980  -0.614875   0.002565
H  -4.904940  -0.353390   0.161577
H  -4.061149   0.952779  -0.890008
H  -3.907239   0.897503   0.894756
C  -1.392238   0.197813   0.003411
H  -2.721560  -1.287661  -0.859664
H  -2.759027  -1.227046   0.914734
C  -0.147246  -0.706087   0.047784
H  -1.421408   0.889167   0.851085
H  -1.397311   0.840355  -0.908769
H  -0.127429  -1.342214   0.955123
H   0.765567  -0.111310   0.053293
H  -0.112272  -1.352904  -0.796020
