butane_opt
 OpenBabel08242015413D

 14 13  0  0  0  0  0  0  0  0999 V2000
   -3.9583    0.2711    0.0429 C   0  0  0  0  0  0  0  0  0  0  0  0
   -2.7009   -0.6223    0.0089 C   0  0  0  0  0  0  0  0  0  0  0  0
   -4.8417   -0.3010    0.1976 H   0  0  0  0  0  0  0  0  0  0  0  0
   -4.0592    0.9360   -0.9068 H   0  0  0  0  0  0  0  0  0  0  0  0
   -3.9334    0.8895    0.8817 H   0  0  0  0  0  0  0  0  0  0  0  0
   -1.3896    0.1863   -0.0084 C   0  0  0  0  0  0  0  0  0  0  0  0
   -2.7275   -1.4039   -0.9322 H   0  0  0  0  0  0  0  0  0  0  0  0
   -2.6846   -1.1986    0.8399 H   0  0  0  0  0  0  0  0  0  0  0  0
   -0.1669   -0.6919    0.0552 C   0  0  0  0  0  0  0  0  0  0  0  0
   -1.3602    0.8403    0.8464 H   0  0  0  0  0  0  0  0  0  0  0  0
   -1.3234    0.8131   -0.9265 H   0  0  0  0  0  0  0  0  0  0  0  0
   -0.1633   -1.3390    0.9836 H   0  0  0  0  0  0  0  0  0  0  0  0
    0.7441   -0.1031    0.0359 H   0  0  0  0  0  0  0  0  0  0  0  0
   -0.0857   -1.3108   -0.7599 H   0  0  0  0  0  0  0  0  0  0  0  0
  1  3  1  0  0  0  0
  1  5  1  0  0  0  0
  2  1  1  0  0  0  0
  2  8  1  0  0  0  0
  4  1  1  0  0  0  0
  6  2  1  0  0  0  0
  6  9  1  0  0  0  0
  6 10  1  0  0  0  0
  7  2  1  0  0  0  0
  9 12  1  0  0  0  0
 11  6  1  0  0  0  0
 13  9  1  0  0  0  0
 14  9  1  0  0  0  0
M  END
$$$$
