14
butane_opt
C  -3.949819   0.257211   0.046039
C  -2.703386  -0.612086   0.009899
H  -4.873792  -0.363523   0.043168
H  -4.015754   0.844133  -0.801891
H  -3.956109   1.016595   0.968775
C  -1.399379   0.191064  -0.028313
H  -2.749310  -1.290932  -0.849538
H  -2.722552  -1.226721   0.913395
C  -0.148717  -0.696537   0.066025
H  -1.407088   0.784901   0.781925
H  -1.401191   0.906036  -0.972908
H  -0.191250  -1.274817   0.938977
H   0.762903  -0.125119   0.105370
H  -0.046720  -1.424169  -0.810920
