butane_opt
 OpenBabel08242015413D

 14 13  0  0  0  0  0  0  0  0999 V2000
   -3.9630    0.2525    0.0324 C   0  0  0  0  0  0  0  0  0  0  0  0
   -2.7033   -0.6033    0.0309 C   0  0  0  0  0  0  0  0  0  0  0  0
   -4.8793   -0.3696    0.0149 H   0  0  0  0  0  0  0  0  0  0  0  0
   -3.9421    0.7910   -0.8225 H   0  0  0  0  0  0  0  0  0  0  0  0
   -3.9722    1.0481    0.9699 H   0  0  0  0  0  0  0  0  0  0  0  0
   -1.3938    0.1927   -0.0138 C   0  0  0  0  0  0  0  0  0  0  0  0
   -2.7242   -1.3106   -0.8513 H   0  0  0  0  0  0  0  0  0  0  0  0
   -2.7298   -1.1903    0.8757 H   0  0  0  0  0  0  0  0  0  0  0  0
   -0.1477   -0.6994    0.0515 C   0  0  0  0  0  0  0  0  0  0  0  0
   -1.4172    0.8114    0.8070 H   0  0  0  0  0  0  0  0  0  0  0  0
   -1.3964    0.8691   -0.9519 H   0  0  0  0  0  0  0  0  0  0  0  0
   -0.1109   -1.3597    0.9636 H   0  0  0  0  0  0  0  0  0  0  0  0
    0.7270   -0.1316    0.0203 H   0  0  0  0  0  0  0  0  0  0  0  0
   -0.0821   -1.3418   -0.7781 H   0  0  0  0  0  0  0  0  0  0  0  0
  1  5  1  0  0  0  0
  2  1  1  0  0  0  0
  2  8  1  0  0  0  0
  3  1  1  0  0  0  0
  4  1  1  0  0  0  0
  6  2  1  0  0  0  0
  6  9  1  0  0  0  0
  6 10  1  0  0  0  0
  7  2  1  0  0  0  0
  9 12  1  0  0  0  0
 11  6  1  0  0  0  0
 13  9  1  0  0  0  0
 14  9  1  0  0  0  0
M  END
$$$$
