14
butane_opt
C  -3.935308   0.249128   0.054000
C  -2.702792  -0.588385   0.012086
H  -4.901292  -0.388256   0.053947
H  -3.966047   0.897195  -0.857982
H  -3.906633   0.924439   0.939257
C  -1.408437   0.189587  -0.037494
H  -2.740246  -1.291174  -0.844937
H  -2.660023  -1.229198   0.898059
C  -0.167431  -0.705994   0.059281
H  -1.426159   0.863280   0.824393
H  -1.348320   0.835672  -0.935260
H  -0.208156  -1.289463   0.926247
H   0.747726  -0.121042   0.163315
H  -0.036097  -1.410536  -0.793283
