14
butane_opt
C  -3.964553   0.270232   0.022924
C  -2.692172  -0.635571   0.050912
H  -4.853947  -0.286909  -0.122681
H  -3.936822   0.771325  -0.781772
H  -4.061947   1.055736   0.926184
C  -1.397886   0.186662  -0.003978
H  -2.697292  -1.318574  -0.780309
H  -2.687158  -1.226587   0.915774
C  -0.153930  -0.685805   0.037479
H  -1.381585   0.824471   0.816302
H  -1.317232   0.847480  -0.926249
H  -0.123206  -1.337974   0.940398
H   0.729138  -0.116790  -0.003593
H  -0.187617  -1.318417  -0.818210
