butane_opt
 OpenBabel08242015413D

 14 13  0  0  0  0  0  0  0  0999 V2000
   -3.9552    0.2577   -0.0017 C   0  0  0  0  0  0  0  0  0  0  0  0
   -2.7021   -0.6041    0.0636 C   0  0  0  0  0  0  0  0  0  0  0  0
   -4.8990   -0.3849    0.0924 H   0  0  0  0  0  0  0  0  0  0  0  0
   -3.9783    0.8780   -0.9257 H   0  0  0  0  0  0  0  0  0  0  0  0
   -3.9905    0.8697    0.8239 H   0  0  0  0  0  0  0  0  0  0  0  0
   -1.4038    0.1958    0.0243 C   0  0  0  0  0  0  0  0  0  0  0  0
   -2.7237   -1.2498   -0.7678 H   0  0  0  0  0  0  0  0  0  0  0  0
   -2.7284   -1.2521    0.9694 H   0  0  0  0  0  0  0  0  0  0  0  0
   -0.1424   -0.7062    0.0131 C   0  0  0  0  0  0  0  0  0  0  0  0
   -1.3538    0.8905    0.8666 H   0  0  0  0  0  0  0  0  0  0  0  0
   -1.4298    0.8725   -0.8915 H   0  0  0  0  0  0  0  0  0  0  0  0
   -0.1648   -1.2054    0.8426 H   0  0  0  0  0  0  0  0  0  0  0  0
    0.7552   -0.1387    0.1468 H   0  0  0  0  0  0  0  0  0  0  0  0
   -0.0561   -1.4855   -0.9172 H   0  0  0  0  0  0  0  0  0  0  0  0
  1  2  1  0  0  0  0
  1  3  1  0  0  0  0
  1  5  1  0  0  0  0
  2  8  1  0  0  0  0
  4  1  1  0  0  0  0
  6  2  1  0  0  0  0
  6 10  1  0  0  0  0
  7  2  1  0  0  0  0
  9  6  1  0  0  0  0
  9 13  1  0  0  0  0
  9 12  1  0  0  0  0
 11  6  1  0  0  0  0
 14  9  1  0  0  0  0
M  END
$$$$
