14
butane_opt
C  -3.949819   0.250708   0.052816
C  -2.713011  -0.596931  -0.001132
H  -4.853664  -0.343171   0.132109
H  -4.020294   0.875377  -0.848938
H  -3.907588   0.908663   0.887414
C  -1.401072   0.202350  -0.014376
H  -2.777807  -1.344424  -0.930037
H  -2.715902  -1.152555   0.845595
C  -0.143252  -0.715054   0.059957
H  -1.429162   0.812287   0.794520
H  -1.352807   0.851324  -0.902908
H  -0.114002  -1.382642   0.994261
H   0.753108  -0.107706   0.040962
H  -0.111002  -1.282235  -0.731665
