butane_opt
 OpenBabel08242015413D

 14 13  0  0  0  0  0  0  0  0999 V2000
   -3.9412    0.2717    0.0331 C   0  0  0  0  0  0  0  0  0  0  0  0
   -2.6995   -0.6284    0.0046 C   0  0  0  0  0  0  0  0  0  0  0  0
   -4.8221   -0.3157    0.0651 H   0  0  0  0  0  0  0  0  0  0  0  0
   -3.9883    0.8174   -0.8312 H   0  0  0  0  0  0  0  0  0  0  0  0
   -3.9647    0.9969    0.9321 H   0  0  0  0  0  0  0  0  0  0  0  0
   -1.4108    0.1764    0.0140 C   0  0  0  0  0  0  0  0  0  0  0  0
   -2.6809   -1.3308   -0.8757 H   0  0  0  0  0  0  0  0  0  0  0  0
   -2.6925   -1.2053    0.8398 H   0  0  0  0  0  0  0  0  0  0  0  0
   -0.1569   -0.6856    0.0538 C   0  0  0  0  0  0  0  0  0  0  0  0
   -1.3753    0.8276    0.8312 H   0  0  0  0  0  0  0  0  0  0  0  0
   -1.4111    0.8659   -0.9158 H   0  0  0  0  0  0  0  0  0  0  0  0
   -0.0972   -1.4271    1.0174 H   0  0  0  0  0  0  0  0  0  0  0  0
    0.7448   -0.0898   -0.1439 H   0  0  0  0  0  0  0  0  0  0  0  0
   -0.2353   -1.2151   -0.7153 H   0  0  0  0  0  0  0  0  0  0  0  0
  1  3  1  0  0  0  0
  1  5  1  0  0  0  0
  2  6  1  0  0  0  0
  2  1  1  0  0  0  0
  2  8  1  0  0  0  0
  4  1  1  0  0  0  0
  6  9  1  0  0  0  0
  6 10  1  0  0  0  0
  7  2  1  0  0  0  0
  9 12  1  0  0  0  0
 11  6  1  0  0  0  0
 13  9  1  0  0  0  0
 14  9  1  0  0  0  0
M  END
$$$$
