14
butane_opt
C  -3.934281   0.249980   0.034937
C  -2.699687  -0.607780   0.017641
H  -4.856049  -0.346429   0.013126
H  -3.937042   0.839744  -0.831193
H  -3.920402   0.985568   0.932071
C  -1.414253   0.196872   0.000620
H  -2.757380  -1.350230  -0.901893
H  -2.692675  -1.171357   0.841936
C  -0.157897  -0.698532   0.055335
H  -1.410041   0.879445   0.870632
H  -1.450705   0.857272  -0.926905
H  -0.095956  -1.465241   1.036582
H   0.721888  -0.127768  -0.150689
H  -0.153167  -1.260145  -0.729465
