butane_opt
 OpenBabel08242015413D

 14 13  0  0  0  0  0  0  0  0999 V2000
   -3.9469    0.2738   -0.0106 C   0  0  0  0  0  0  0  0  0  0  0  0
   -2.7104   -0.6266    0.0663 C   0  0  0  0  0  0  0  0  0  0  0  0
   -4.8546   -0.3175   -0.0484 H   0  0  0  0  0  0  0  0  0  0  0  0
   -3.9696    0.8351   -0.8790 H   0  0  0  0  0  0  0  0  0  0  0  0
   -4.0259    0.9901    0.8937 H   0  0  0  0  0  0  0  0  0  0  0  0
   -1.3933    0.1858    0.0382 C   0  0  0  0  0  0  0  0  0  0  0  0
   -2.6636   -1.2660   -0.7708 H   0  0  0  0  0  0  0  0  0  0  0  0
   -2.7454   -1.2975    0.9901 H   0  0  0  0  0  0  0  0  0  0  0  0
   -0.1592   -0.6860   -0.0020 C   0  0  0  0  0  0  0  0  0  0  0  0
   -1.3508    0.8563    0.8905 H   0  0  0  0  0  0  0  0  0  0  0  0
   -1.3730    0.7599   -0.8114 H   0  0  0  0  0  0  0  0  0  0  0  0
   -0.0754   -1.3617    0.9540 H   0  0  0  0  0  0  0  0  0  0  0  0
    0.7179   -0.1148   -0.0357 H   0  0  0  0  0  0  0  0  0  0  0  0
   -0.1641   -1.3198   -0.8330 H   0  0  0  0  0  0  0  0  0  0  0  0
  1  2  1  0  0  0  0
  1  5  1  0  0  0  0
  2  8  1  0  0  0  0
  3  1  1  0  0  0  0
  4  1  1  0  0  0  0
  6  2  1  0  0  0  0
  6 10  1  0  0  0  0
  7  2  1  0  0  0  0
  9  6  1  0  0  0  0
  9 12  1  0  0  0  0
 11  6  1  0  0  0  0
 13  9  1  0  0  0  0
 14  9  1  0  0  0  0
M  END
$$$$
