14
butane_opt
C  -3.939413   0.275058   0.046632
C  -2.683704  -0.628689   0.020293
H  -4.874834  -0.333432  -0.093937
H  -3.931820   0.760608  -0.793218
H  -3.972948   1.065082   0.993922
C  -1.410588   0.174180  -0.020843
H  -2.701755  -1.331588  -0.831120
H  -2.705142  -1.231689   0.888087
C  -0.170672  -0.683366   0.060470
H  -1.402006   0.811701   0.796229
H  -1.366377   0.888412  -0.969027
H  -0.174382  -1.361085   0.999925
H   0.721263  -0.089433  -0.017949
H  -0.164622  -1.303219  -0.794481
