14
butane_opt
C  -3.943322   0.269902  -0.011179
C  -2.693924  -0.632318   0.050361
H  -4.827387  -0.300985   0.151294
H  -4.004713   1.005793  -0.948649
H  -3.955305   0.831265   0.774149
C  -1.413379   0.174101   0.041551
H  -2.640920  -1.232118  -0.750265
H  -2.716435  -1.278561   0.976575
C  -0.162739  -0.682032   0.011783
H  -1.357409   0.920464   0.954508
H  -1.370478   0.747408  -0.792507
H  -0.116851  -1.226811   0.856202
H   0.719619  -0.100652  -0.016005
H  -0.192533  -1.397650  -0.893868
