14
butane_opt
C  -3.941971   0.253773   0.037736
C  -2.690544  -0.602394   0.031587
H  -4.858384  -0.361364  -0.106174
H  -3.870011   0.790240  -0.792775
H  -3.994157   1.017199   0.975692
C  -1.415001   0.195217  -0.010258
H  -2.744943  -1.298683  -0.844838
H  -2.724941  -1.213103   0.906621
C  -0.156597  -0.704664   0.049455
H  -1.420356   0.799175   0.761495
H  -1.434974   0.856837  -0.910835
H  -0.157688  -1.352687   0.971713
H   0.764640  -0.074322  -0.026210
H  -0.130948  -1.339702  -0.784724
