butane_opt
 OpenBabel08242015413D

 14 13  0  0  0  0  0  0  0  0999 V2000
   -3.9557    0.2718   -0.0092 C   0  0  0  0  0  0  0  0  0  0  0  0
   -2.6850   -0.6219    0.0555 C   0  0  0  0  0  0  0  0  0  0  0  0
   -4.8193   -0.2745    0.0211 H   0  0  0  0  0  0  0  0  0  0  0  0
   -3.9602    0.8869   -0.9134 H   0  0  0  0  0  0  0  0  0  0  0  0
   -3.9841    0.9156    0.8238 H   0  0  0  0  0  0  0  0  0  0  0  0
   -1.4030    0.1703    0.0603 C   0  0  0  0  0  0  0  0  0  0  0  0
   -2.6657   -1.3372   -0.8064 H   0  0  0  0  0  0  0  0  0  0  0  0
   -2.7511   -1.2479    0.9591 H   0  0  0  0  0  0  0  0  0  0  0  0
   -0.1655   -0.6812    0.0042 C   0  0  0  0  0  0  0  0  0  0  0  0
   -1.4010    0.8417    0.9273 H   0  0  0  0  0  0  0  0  0  0  0  0
   -1.3859    0.8079   -0.8529 H   0  0  0  0  0  0  0  0  0  0  0  0
   -0.1029   -1.3550    0.9294 H   0  0  0  0  0  0  0  0  0  0  0  0
    0.7757   -0.0582   -0.1625 H   0  0  0  0  0  0  0  0  0  0  0  0
   -0.2316   -1.3023   -0.8149 H   0  0  0  0  0  0  0  0  0  0  0  0
  1  3  1  0  0  0  0
  1  2  1  0  0  0  0
  1  5  1  0  0  0  0
  2  6  1  0  0  0  0
  2  8  1  0  0  0  0
  4  1  1  0  0  0  0
  6 10  1  0  0  0  0
  7  2  1  0  0  0  0
  9  6  1  0  0  0  0
  9 12  1  0  0  0  0
 11  6  1  0  0  0  0
 13  9  1  0  0  0  0
 14  9  1  0  0  0  0
M  END
$$$$
