14
butane_opt
C  -3.961699   0.281057   0.044472
C  -2.700274  -0.634804   0.000991
H  -4.856028  -0.290646   0.022958
H  -4.010621   0.837951  -0.798356
H  -3.976393   0.992439   0.948427
C  -1.387644   0.170567  -0.012401
H  -2.759988  -1.322987  -0.866271
H  -2.720492  -1.221719   0.884543
C  -0.155086  -0.690813   0.056960
H  -1.358126   0.858046   0.865629
H  -1.395866   0.839682  -0.920993
H  -0.180104  -1.401027   1.018533
H   0.790594  -0.029614  -0.065632
H  -0.110478  -1.240144  -0.717015
