14
butane_opt
C  -3.957539   0.256773  -0.009272
C  -2.712075  -0.611240   0.059517
H  -4.851852  -0.317412   0.019573
H  -3.961445   0.880380  -0.912891
H  -3.971534   0.919580   0.846395
C  -1.398652   0.196313   0.050098
H  -2.714255  -1.316061  -0.798812
H  -2.725033  -1.195135   0.900789
C  -0.139210  -0.707678   0.008649
H  -1.355341   0.894983   0.909615
H  -1.453517   0.806425  -0.846189
H  -0.052565  -1.389696   0.934069
H   0.770421  -0.091084  -0.122564
H  -0.217249  -1.268543  -0.784750
