butane_opt
 OpenBabel08242015413D

 14 13  0  0  0  0  0  0  0  0999 V2000
   -3.9376    0.2587   -0.0072 C   0  0  0  0  0  0  0  0  0  0  0  0
   -2.6912   -0.6091    0.0699 C   0  0  0  0  0  0  0  0  0  0  0  0
   -4.8382   -0.3375    0.0422 H   0  0  0  0  0  0  0  0  0  0  0  0
   -3.9521    0.9679   -0.9611 H   0  0  0  0  0  0  0  0  0  0  0  0
   -3.9877    0.9061    0.8156 H   0  0  0  0  0  0  0  0  0  0  0  0
   -1.4085    0.1770    0.0392 C   0  0  0  0  0  0  0  0  0  0  0  0
   -2.7170   -1.2438   -0.7522 H   0  0  0  0  0  0  0  0  0  0  0  0
   -2.7161   -1.2711    0.9916 H   0  0  0  0  0  0  0  0  0  0  0  0
   -0.1663   -0.6905    0.0025 C   0  0  0  0  0  0  0  0  0  0  0  0
   -1.3951    0.8414    0.8848 H   0  0  0  0  0  0  0  0  0  0  0  0
   -1.3913    0.7965   -0.8757 H   0  0  0  0  0  0  0  0  0  0  0  0
   -0.1514   -1.1952    0.8303 H   0  0  0  0  0  0  0  0  0  0  0  0
    0.7719   -0.0967    0.1161 H   0  0  0  0  0  0  0  0  0  0  0  0
   -0.1996   -1.4698   -0.9191 H   0  0  0  0  0  0  0  0  0  0  0  0
  1  3  1  0  0  0  0
  1  2  1  0  0  0  0
  1  5  1  0  0  0  0
  2  8  1  0  0  0  0
  4  1  1  0  0  0  0
  6  2  1  0  0  0  0
  6 10  1  0  0  0  0
  7  2  1  0  0  0  0
  9  6  1  0  0  0  0
  9 13  1  0  0  0  0
  9 12  1  0  0  0  0
 11  6  1  0  0  0  0
 14  9  1  0  0  0  0
M  END
$$$$
