butane_opt
 OpenBabel08242015413D

 14 13  0  0  0  0  0  0  0  0999 V2000
   -3.9377    0.2501    0.0023 C   0  0  0  0  0  0  0  0  0  0  0  0
   -2.6959   -0.5884    0.0411 C   0  0  0  0  0  0  0  0  0  0  0  0
   -4.8344   -0.3633    0.0335 H   0  0  0  0  0  0  0  0  0  0  0  0
   -3.8891    0.8488   -0.8851 H   0  0  0  0  0  0  0  0  0  0  0  0
   -3.9772    0.8926    0.8507 H   0  0  0  0  0  0  0  0  0  0  0  0
   -1.4189    0.1906    0.0345 C   0  0  0  0  0  0  0  0  0  0  0  0
   -2.6962   -1.2616   -0.8014 H   0  0  0  0  0  0  0  0  0  0  0  0
   -2.7553   -1.2412    0.9612 H   0  0  0  0  0  0  0  0  0  0  0  0
   -0.1603   -0.7064    0.0164 C   0  0  0  0  0  0  0  0  0  0  0  0
   -1.3813    0.9237    0.9534 H   0  0  0  0  0  0  0  0  0  0  0  0
   -1.4285    0.7842   -0.8213 H   0  0  0  0  0  0  0  0  0  0  0  0
   -0.0726   -1.4120    0.9574 H   0  0  0  0  0  0  0  0  0  0  0  0
    0.7634   -0.1008   -0.1280 H   0  0  0  0  0  0  0  0  0  0  0  0
   -0.1991   -1.2897   -0.8009 H   0  0  0  0  0  0  0  0  0  0  0  0
  1  3  1  0  0  0  0
  1  2  1  0  0  0  0
  1  5  1  0  0  0  0
  2  8  1  0  0  0  0
  4  1  1  0  0  0  0
  6  2  1  0  0  0  0
  6 10  1  0  0  0  0
  7  2  1  0  0  0  0
  9  6  1  0  0  0  0
  9 12  1  0  0  0  0
 11  6  1  0  0  0  0
 13  9  1  0  0  0  0
 14  9  1  0  0  0  0
M  END
$$$$
