butane_opt
 OpenBabel08242015413D

 14 13  0  0  0  0  0  0  0  0999 V2000
   -3.9468    0.2742   -0.0039 C   0  0  0  0  0  0  0  0  0  0  0  0
   -2.6886   -0.6186    0.0537 C   0  0  0  0  0  0  0  0  0  0  0  0
   -4.8106   -0.2858    0.1661 H   0  0  0  0  0  0  0  0  0  0  0  0
   -4.0096    1.0193   -0.9716 H   0  0  0  0  0  0  0  0  0  0  0  0
   -3.9089    0.8138    0.7677 H   0  0  0  0  0  0  0  0  0  0  0  0
   -1.3965    0.1641    0.0445 C   0  0  0  0  0  0  0  0  0  0  0  0
   -2.6920   -1.3302   -0.8073 H   0  0  0  0  0  0  0  0  0  0  0  0
   -2.7743   -1.2499    0.9365 H   0  0  0  0  0  0  0  0  0  0  0  0
   -0.1728   -0.6863    0.0137 C   0  0  0  0  0  0  0  0  0  0  0  0
   -1.3451    0.8630    0.8924 H   0  0  0  0  0  0  0  0  0  0  0  0
   -1.4286    0.7932   -0.8602 H   0  0  0  0  0  0  0  0  0  0  0  0
   -0.1637   -1.2239    0.8630 H   0  0  0  0  0  0  0  0  0  0  0  0
    0.7685   -0.0533    0.0617 H   0  0  0  0  0  0  0  0  0  0  0  0
   -0.2133   -1.4064   -0.9133 H   0  0  0  0  0  0  0  0  0  0  0  0
  1  2  1  0  0  0  0
  1  3  1  0  0  0  0
  1  5  1  0  0  0  0
  2  8  1  0  0  0  0
  4  1  1  0  0  0  0
  6  2  1  0  0  0  0
  6 10  1  0  0  0  0
  7  2  1  0  0  0  0
  9  6  1  0  0  0  0
  9 13  1  0  0  0  0
  9 12  1  0  0  0  0
 11  6  1  0  0  0  0
 14  9  1  0  0  0  0
M  END
$$$$
