14
butane_opt
C  -3.945808   0.276717   0.028953
C  -2.694133  -0.627217   0.034639
H  -4.896032  -0.356864  -0.082226
H  -3.926650   0.828795  -0.816735
H  -3.992132   1.019636   0.950531
C  -1.403049   0.175472  -0.012882
H  -2.740778  -1.271526  -0.807334
H  -2.673419  -1.247191   0.938437
C  -0.166081  -0.691230   0.046840
H  -1.357734   0.872107   0.843534
H  -1.381390   0.780782  -0.896024
H  -0.147672  -1.319156   0.967619
H   0.759039  -0.074475  -0.025989
H  -0.156827  -1.315536  -0.797716
