butane_opt
 OpenBabel08242015413D

 14 13  0  0  0  0  0  0  0  0999 V2000
   -3.9680    0.2801   -0.0023 C   0  0  0  0  0  0  0  0  0  0  0  0
   -2.6885   -0.6279    0.0630 C   0  0  0  0  0  0  0  0  0  0  0  0
   -4.8602   -0.3193    0.0893 H   0  0  0  0  0  0  0  0  0  0  0  0
   -3.9981    0.9553   -0.9640 H   0  0  0  0  0  0  0  0  0  0  0  0
   -3.9854    0.8439    0.7819 H   0  0  0  0  0  0  0  0  0  0  0  0
   -1.3929    0.1737    0.0370 C   0  0  0  0  0  0  0  0  0  0  0  0
   -2.6908   -1.3407   -0.8272 H   0  0  0  0  0  0  0  0  0  0  0  0
   -2.7217   -1.2316    0.9497 H   0  0  0  0  0  0  0  0  0  0  0  0
   -0.1530   -0.6831    0.0107 C   0  0  0  0  0  0  0  0  0  0  0  0
   -1.3625    0.8557    0.9139 H   0  0  0  0  0  0  0  0  0  0  0  0
   -1.3835    0.7733   -0.8131 H   0  0  0  0  0  0  0  0  0  0  0  0
   -0.1710   -1.2519    0.8939 H   0  0  0  0  0  0  0  0  0  0  0  0
    0.7548   -0.0969   -0.0269 H   0  0  0  0  0  0  0  0  0  0  0  0
   -0.1739   -1.3681   -0.8747 H   0  0  0  0  0  0  0  0  0  0  0  0
  1  2  1  0  0  0  0
  1  3  1  0  0  0  0
  1  5  1  0  0  0  0
  2  8  1  0  0  0  0
  4  1  1  0  0  0  0
  6  2  1  0  0  0  0
  6 10  1  0  0  0  0
  7  2  1  0  0  0  0
  9  6  1  0  0  0  0
  9 12  1  0  0  0  0
 11  6  1  0  0  0  0
 13  9  1  0  0  0  0
 14  9  1  0  0  0  0
M  END
$$$$
