butane_opt
 OpenBabel08242015413D

 14 13  0  0  0  0  0  0  0  0999 V2000
   -3.9360    0.2514   -0.0027 C   0  0  0  0  0  0  0  0  0  0  0  0
   -2.6977   -0.5959    0.0526 C   0  0  0  0  0  0  0  0  0  0  0  0
   -4.8863   -0.3675    0.1787 H   0  0  0  0  0  0  0  0  0  0  0  0
   -3.9850    0.9942   -0.9982 H   0  0  0  0  0  0  0  0  0  0  0  0
   -3.8849    0.7828    0.7820 H   0  0  0  0  0  0  0  0  0  0  0  0
   -1.4099    0.1923    0.0333 C   0  0  0  0  0  0  0  0  0  0  0  0
   -2.6665   -1.2687   -0.7898 H   0  0  0  0  0  0  0  0  0  0  0  0
   -2.7499   -1.2325    0.9542 H   0  0  0  0  0  0  0  0  0  0  0  0
   -0.1586   -0.7056    0.0083 C   0  0  0  0  0  0  0  0  0  0  0  0
   -1.3668    0.9609    0.9556 H   0  0  0  0  0  0  0  0  0  0  0  0
   -1.4489    0.7425   -0.8218 H   0  0  0  0  0  0  0  0  0  0  0  0
   -0.1518   -1.2802    0.8793 H   0  0  0  0  0  0  0  0  0  0  0  0
    0.7005   -0.1359    0.0736 H   0  0  0  0  0  0  0  0  0  0  0  0
   -0.1449   -1.3830   -0.8799 H   0  0  0  0  0  0  0  0  0  0  0  0
  1  2  1  0  0  0  0
  1  3  1  0  0  0  0
  1  5  1  0  0  0  0
  2  8  1  0  0  0  0
  4  1  1  0  0  0  0
  6  2  1  0  0  0  0
  6 10  1  0  0  0  0
  7  2  1  0  0  0  0
  9  6  1  0  0  0  0
  9 13  1  0  0  0  0
  9 12  1  0  0  0  0
 11  6  1  0  0  0  0
 14  9  1  0  0  0  0
M  END
$$$$
