14
butane_opt
C  -3.960944   0.263824  -0.011937
C  -2.698894  -0.615246   0.059779
H  -4.851251  -0.309275   0.024553
H  -3.947483   0.863298  -0.895317
H  -4.014010   0.944163   0.860616
C  -1.394597   0.182161   0.049976
H  -2.700670  -1.267944  -0.770245
H  -2.759089  -1.235316   0.926233
C  -0.154435  -0.693721   0.006254
H  -1.370247   0.846249   0.901530
H  -1.377687   0.823541  -0.843670
H  -0.063398  -1.335663   0.919917
H   0.767956  -0.114965  -0.097358
H  -0.202892  -1.325636  -0.827066
