butane_opt
 OpenBabel08242015413D

 14 13  0  0  0  0  0  0  0  0999 V2000
   -3.9367    0.2647    0.0445 C   0  0  0  0  0  0  0  0  0  0  0  0
   -2.6937   -0.6222    0.0045 C   0  0  0  0  0  0  0  0  0  0  0  0
   -4.7862   -0.3022   -0.0042 H   0  0  0  0  0  0  0  0  0  0  0  0
   -3.9605    0.8030   -0.8196 H   0  0  0  0  0  0  0  0  0  0  0  0
   -3.9480    1.0092    0.9282 H   0  0  0  0  0  0  0  0  0  0  0  0
   -1.4103    0.1731   -0.0110 C   0  0  0  0  0  0  0  0  0  0  0  0
   -2.7165   -1.3059   -0.8385 H   0  0  0  0  0  0  0  0  0  0  0  0
   -2.6953   -1.2070    0.8744 H   0  0  0  0  0  0  0  0  0  0  0  0
   -0.1694   -0.6847    0.0599 C   0  0  0  0  0  0  0  0  0  0  0  0
   -1.4503    0.9148    0.8593 H   0  0  0  0  0  0  0  0  0  0  0  0
   -1.3944    0.7972   -0.8843 H   0  0  0  0  0  0  0  0  0  0  0  0
   -0.1183   -1.4282    1.0370 H   0  0  0  0  0  0  0  0  0  0  0  0
    0.7380   -0.1002   -0.1598 H   0  0  0  0  0  0  0  0  0  0  0  0
   -0.1791   -1.2179   -0.7123 H   0  0  0  0  0  0  0  0  0  0  0  0
  1  5  1  0  0  0  0
  2  1  1  0  0  0  0
  2  8  1  0  0  0  0
  3  1  1  0  0  0  0
  4  1  1  0  0  0  0
  6  2  1  0  0  0  0
  6  9  1  0  0  0  0
  6 10  1  0  0  0  0
  7  2  1  0  0  0  0
  9 12  1  0  0  0  0
 11  6  1  0  0  0  0
 13  9  1  0  0  0  0
 14  9  1  0  0  0  0
M  END
$$$$
