butane_opt
 OpenBabel08242015413D

 14 13  0  0  0  0  0  0  0  0999 V2000
   -3.9640    0.2782    0.0361 C   0  0  0  0  0  0  0  0  0  0  0  0
   -2.7025   -0.6303    0.0128 C   0  0  0  0  0  0  0  0  0  0  0  0
   -4.8510   -0.3124    0.0860 H   0  0  0  0  0  0  0  0  0  0  0  0
   -4.0036    0.8848   -0.8559 H   0  0  0  0  0  0  0  0  0  0  0  0
   -3.9114    0.9662    0.8892 H   0  0  0  0  0  0  0  0  0  0  0  0
   -1.3967    0.1691   -0.0039 C   0  0  0  0  0  0  0  0  0  0  0  0
   -2.6635   -1.2780   -0.8198 H   0  0  0  0  0  0  0  0  0  0  0  0
   -2.7297   -1.2326    0.8982 H   0  0  0  0  0  0  0  0  0  0  0  0
   -0.1591   -0.6817    0.0442 C   0  0  0  0  0  0  0  0  0  0  0  0
   -1.3423    0.8279    0.8506 H   0  0  0  0  0  0  0  0  0  0  0  0
   -1.3342    0.8077   -0.9004 H   0  0  0  0  0  0  0  0  0  0  0  0
   -0.1532   -1.3416    0.9622 H   0  0  0  0  0  0  0  0  0  0  0  0
    0.7726   -0.0853    0.0630 H   0  0  0  0  0  0  0  0  0  0  0  0
   -0.1485   -1.3275   -0.7924 H   0  0  0  0  0  0  0  0  0  0  0  0
  1  3  1  0  0  0  0
  1  5  1  0  0  0  0
  2  1  1  0  0  0  0
  2  8  1  0  0  0  0
  4  1  1  0  0  0  0
  6  2  1  0  0  0  0
  6  9  1  0  0  0  0
  6 10  1  0  0  0  0
  7  2  1  0  0  0  0
  9 13  1  0  0  0  0
  9 12  1  0  0  0  0
 11  6  1  0  0  0  0
 14  9  1  0  0  0  0
M  END
$$$$
