14
butane_opt
C  -3.937436   0.257362   0.036550
C  -2.703228  -0.601304   0.013855
H  -4.894102  -0.395769   0.026296
H  -3.915215   0.805285  -0.839796
H  -3.948540   0.950366   0.933901
C  -1.418428   0.195594  -0.001708
H  -2.727319  -1.266200  -0.815935
H  -2.678386  -1.201076   0.891631
C  -0.159134  -0.705998   0.055298
H  -1.408443   0.825606   0.822106
H  -1.380890   0.866318  -0.954947
H  -0.073542  -1.352502   0.950822
H   0.753728  -0.104190  -0.000607
H  -0.131960  -1.351991  -0.810785
