butane_opt
 OpenBabel08242015413D

 14 13  0  0  0  0  0  0  0  0999 V2000
   -3.9338    0.2791    0.0091 C   0  0  0  0  0  0  0  0  0  0  0  0
   -2.6919   -0.6324    0.0437 C   0  0  0  0  0  0  0  0  0  0  0  0
   -4.8619   -0.3195    0.1575 H   0  0  0  0  0  0  0  0  0  0  0  0
   -4.0185    1.0117   -0.9802 H   0  0  0  0  0  0  0  0  0  0  0  0
   -3.9382    0.8179    0.7861 H   0  0  0  0  0  0  0  0  0  0  0  0
   -1.4001    0.1733    0.0222 C   0  0  0  0  0  0  0  0  0  0  0  0
   -2.7071   -1.2749   -0.8006 H   0  0  0  0  0  0  0  0  0  0  0  0
   -2.7144   -1.2631    0.9260 H   0  0  0  0  0  0  0  0  0  0  0  0
   -0.1789   -0.6866    0.0234 C   0  0  0  0  0  0  0  0  0  0  0  0
   -1.3622    0.9284    0.9166 H   0  0  0  0  0  0  0  0  0  0  0  0
   -1.3799    0.7271   -0.8030 H   0  0  0  0  0  0  0  0  0  0  0  0
   -0.1718   -1.2264    0.8680 H   0  0  0  0  0  0  0  0  0  0  0  0
    0.7167   -0.0923    0.0213 H   0  0  0  0  0  0  0  0  0  0  0  0
   -0.1279   -1.3803   -0.8525 H   0  0  0  0  0  0  0  0  0  0  0  0
  1  2  1  0  0  0  0
  1  3  1  0  0  0  0
  1  5  1  0  0  0  0
  2  8  1  0  0  0  0
  4  1  1  0  0  0  0
  6  9  1  0  0  0  0
  6  2  1  0  0  0  0
  6 10  1  0  0  0  0
  7  2  1  0  0  0  0
  9 12  1  0  0  0  0
 11  6  1  0  0  0  0
 13  9  1  0  0  0  0
 14  9  1  0  0  0  0
M  END
$$$$
