14
butane_opt
C  -3.929730   0.266883   0.025455
C  -2.699350  -0.625994   0.009114
H  -4.812652  -0.309137   0.048145
H  -3.992499   0.806703  -0.818784
H  -3.952088   1.020198   0.949897
C  -1.411100   0.178493   0.005443
H  -2.687418  -1.277096  -0.838720
H  -2.690051  -1.216576   0.892124
C  -0.168973  -0.685053   0.050802
H  -1.381609   0.867832   0.854118
H  -1.415322   0.796026  -0.888323
H  -0.095952  -1.422584   1.056001
H   0.752775  -0.096790  -0.138396
H  -0.239909  -1.250739  -0.740765
