butane_opt
 OpenBabel08242015413D

 14 13  0  0  0  0  0  0  0  0999 V2000
   -3.9501    0.2757   -0.0120 C   0  0  0  0  0  0  0  0  0  0  0  0
   -2.6850   -0.6207    0.0624 C   0  0  0  0  0  0  0  0  0  0  0  0
   -4.8394   -0.3037    0.0431 H   0  0  0  0  0  0  0  0  0  0  0  0
   -3.9187    0.9041   -0.9529 H   0  0  0  0  0  0  0  0  0  0  0  0
   -3.9993    0.9064    0.8180 H   0  0  0  0  0  0  0  0  0  0  0  0
   -1.3948    0.1611    0.0532 C   0  0  0  0  0  0  0  0  0  0  0  0
   -2.6582   -1.2541   -0.7693 H   0  0  0  0  0  0  0  0  0  0  0  0
   -2.7738   -1.2746    0.9575 H   0  0  0  0  0  0  0  0  0  0  0  0
   -0.1769   -0.6834   -0.0041 C   0  0  0  0  0  0  0  0  0  0  0  0
   -1.3292    0.9352    0.9590 H   0  0  0  0  0  0  0  0  0  0  0  0
   -1.4095    0.7492   -0.7909 H   0  0  0  0  0  0  0  0  0  0  0  0
   -0.1339   -1.3523    0.9207 H   0  0  0  0  0  0  0  0  0  0  0  0
    0.7380   -0.0734   -0.1028 H   0  0  0  0  0  0  0  0  0  0  0  0
   -0.2228   -1.2955   -0.8259 H   0  0  0  0  0  0  0  0  0  0  0  0
  1  3  1  0  0  0  0
  1  2  1  0  0  0  0
  1  5  1  0  0  0  0
  2  8  1  0  0  0  0
  4  1  1  0  0  0  0
  6  2  1  0  0  0  0
  6 10  1  0  0  0  0
  7  2  1  0  0  0  0
  9  6  1  0  0  0  0
  9 12  1  0  0  0  0
 11  6  1  0  0  0  0
 13  9  1  0  0  0  0
 14  9  1  0  0  0  0
M  END
$$$$
