butane_opt
 OpenBabel08242015413D

 14 13  0  0  0  0  0  0  0  0999 V2000
   -3.9562    0.2568    0.0001 C   0  0  0  0  0  0  0  0  0  0  0  0
   -2.7100   -0.6041    0.0572 C   0  0  0  0  0  0  0  0  0  0  0  0
   -4.8652   -0.3378   -0.0645 H   0  0  0  0  0  0  0  0  0  0  0  0
   -3.8595    0.7951   -0.8442 H   0  0  0  0  0  0  0  0  0  0  0  0
   -4.0214    0.9585    0.8729 H   0  0  0  0  0  0  0  0  0  0  0  0
   -1.4105    0.2000    0.0308 C   0  0  0  0  0  0  0  0  0  0  0  0
   -2.7028   -1.2551   -0.7675 H   0  0  0  0  0  0  0  0  0  0  0  0
   -2.7236   -1.2694    0.9765 H   0  0  0  0  0  0  0  0  0  0  0  0
   -0.1426   -0.7015    0.0189 C   0  0  0  0  0  0  0  0  0  0  0  0
   -1.3634    0.8291    0.8852 H   0  0  0  0  0  0  0  0  0  0  0  0
   -1.3929    0.8340   -0.8689 H   0  0  0  0  0  0  0  0  0  0  0  0
   -0.0527   -1.3335    0.8916 H   0  0  0  0  0  0  0  0  0  0  0  0
    0.7526   -0.1333   -0.0672 H   0  0  0  0  0  0  0  0  0  0  0  0
   -0.1640   -1.3731   -0.8500 H   0  0  0  0  0  0  0  0  0  0  0  0
  1  2  1  0  0  0  0
  1  5  1  0  0  0  0
  2  8  1  0  0  0  0
  3  1  1  0  0  0  0
  4  1  1  0  0  0  0
  6  2  1  0  0  0  0
  6 10  1  0  0  0  0
  7  2  1  0  0  0  0
  9  6  1  0  0  0  0
  9 12  1  0  0  0  0
 11  6  1  0  0  0  0
 13  9  1  0  0  0  0
 14  9  1  0  0  0  0
M  END
$$$$
