14
butane_opt
C  -3.944715   0.276910  -0.018388
C  -2.692600  -0.624552   0.066360
H  -4.830646  -0.301835  -0.014570
H  -3.962039   0.904043  -0.930745
H  -3.995199   0.916517   0.826636
C  -1.391612   0.173424   0.058911
H  -2.687085  -1.254460  -0.761697
H  -2.734625  -1.307652   1.003740
C  -0.174919  -0.688791  -0.005989
H  -1.418479   0.884854   0.942880
H  -1.403346   0.730157  -0.788552
H  -0.105819  -1.314816   0.898366
H   0.786027  -0.031675  -0.129345
H  -0.234400  -1.324696  -0.825981
