14
butane_opt
C  -3.934590   0.244106  -0.006341
C  -2.703776  -0.594225   0.055641
H  -4.868679  -0.343942   0.048913
H  -3.921611   0.951938  -0.946515
H  -3.924482   0.870833   0.839894
C  -1.419340   0.196015   0.047553
H  -2.664801  -1.278956  -0.795599
H  -2.749556  -1.240375   0.963902
C  -0.155964  -0.706056   0.005374
H  -1.396132   0.896034   0.925920
H  -1.433772   0.788297  -0.838282
H  -0.059253  -1.332038   0.895011
H   0.746441  -0.110726  -0.045307
H  -0.184435  -1.348432  -0.835488
