butane_opt
 OpenBabel08242015413D

 14 13  0  0  0  0  0  0  0  0999 V2000
   -3.9449    0.2609    0.0115 C   0  0  0  0  0  0  0  0  0  0  0  0
   -2.7054   -0.6157    0.0703 C   0  0  0  0  0  0  0  0  0  0  0  0
   -4.8723   -0.3194   -0.1560 H   0  0  0  0  0  0  0  0  0  0  0  0
   -3.9176    0.7991   -0.8545 H   0  0  0  0  0  0  0  0  0  0  0  0
   -4.0545    1.0249    0.9127 H   0  0  0  0  0  0  0  0  0  0  0  0
   -1.3963    0.2003    0.0166 C   0  0  0  0  0  0  0  0  0  0  0  0
   -2.7428   -1.3175   -0.7896 H   0  0  0  0  0  0  0  0  0  0  0  0
   -2.7569   -1.2659    0.9586 H   0  0  0  0  0  0  0  0  0  0  0  0
   -0.1465   -0.7000    0.0120 C   0  0  0  0  0  0  0  0  0  0  0  0
   -1.3991    0.8463    0.8324 H   0  0  0  0  0  0  0  0  0  0  0  0
   -1.4187    0.8339   -0.8943 H   0  0  0  0  0  0  0  0  0  0  0  0
   -0.1567   -1.3433    0.9399 H   0  0  0  0  0  0  0  0  0  0  0  0
    0.7534   -0.1167    0.0084 H   0  0  0  0  0  0  0  0  0  0  0  0
   -0.1356   -1.3624   -0.8338 H   0  0  0  0  0  0  0  0  0  0  0  0
  1  2  1  0  0  0  0
  1  5  1  0  0  0  0
  2  8  1  0  0  0  0
  3  1  1  0  0  0  0
  4  1  1  0  0  0  0
  6  2  1  0  0  0  0
  6 10  1  0  0  0  0
  7  2  1  0  0  0  0
  9  6  1  0  0  0  0
  9 12  1  0  0  0  0
 11  6  1  0  0  0  0
 13  9  1  0  0  0  0
 14  9  1  0  0  0  0
M  END
$$$$
