butane_opt
 OpenBabel08242015413D

 14 13  0  0  0  0  0  0  0  0999 V2000
   -3.9478    0.2492    0.0552 C   0  0  0  0  0  0  0  0  0  0  0  0
   -2.7123   -0.5951    0.0084 C   0  0  0  0  0  0  0  0  0  0  0  0
   -4.8572   -0.3257    0.0174 H   0  0  0  0  0  0  0  0  0  0  0  0
   -3.9809    0.8339   -0.7962 H   0  0  0  0  0  0  0  0  0  0  0  0
   -3.9649    0.9612    0.9510 H   0  0  0  0  0  0  0  0  0  0  0  0
   -1.4039    0.1991   -0.0403 C   0  0  0  0  0  0  0  0  0  0  0  0
   -2.7651   -1.2978   -0.8542 H   0  0  0  0  0  0  0  0  0  0  0  0
   -2.7171   -1.2447    0.9038 H   0  0  0  0  0  0  0  0  0  0  0  0
   -0.1416   -0.7084    0.0625 C   0  0  0  0  0  0  0  0  0  0  0  0
   -1.4042    0.8504    0.8037 H   0  0  0  0  0  0  0  0  0  0  0  0
   -1.3521    0.8374   -0.9276 H   0  0  0  0  0  0  0  0  0  0  0  0
   -0.1924   -1.3220    0.9857 H   0  0  0  0  0  0  0  0  0  0  0  0
    0.7680   -0.1429    0.1252 H   0  0  0  0  0  0  0  0  0  0  0  0
   -0.0792   -1.3640   -0.7951 H   0  0  0  0  0  0  0  0  0  0  0  0
  1  5  1  0  0  0  0
  2  1  1  0  0  0  0
  2  8  1  0  0  0  0
  3  1  1  0  0  0  0
  4  1  1  0  0  0  0
  6  2  1  0  0  0  0
  6  9  1  0  0  0  0
  6 10  1  0  0  0  0
  7  2  1  0  0  0  0
  9 13  1  0  0  0  0
  9 12  1  0  0  0  0
 11  6  1  0  0  0  0
 14  9  1  0  0  0  0
M  END
$$$$
