14
butane_opt
C  -3.936090   0.267662   0.000207
C  -2.699562  -0.616618   0.058088
H  -4.838178  -0.350334  -0.032949
H  -3.935758   0.856629  -0.879293
H  -4.034728   0.996916   0.896294
C  -1.402539   0.182267   0.023388
H  -2.659545  -1.301266  -0.795067
H  -2.737726  -1.268672   0.973410
C  -0.172120  -0.691776   0.013203
H  -1.335450   0.894820   0.902019
H  -1.397885   0.776762  -0.813594
H  -0.131745  -1.370821   0.959333
H   0.751235  -0.086053  -0.084151
H  -0.173714  -1.317237  -0.812575
