14
butane_opt
C  -3.951881   0.256278   0.016043
C  -2.707164  -0.612205   0.050705
H  -4.856156  -0.357655  -0.011512
H  -3.970491   0.868167  -0.860514
H  -3.971931   0.931472   0.883795
C  -1.407839   0.199320  -0.002417
H  -2.719677  -1.249645  -0.758323
H  -2.718871  -1.266870   0.951473
C  -0.152478  -0.700414   0.028205
H  -1.339585   0.884105   0.874992
H  -1.398899   0.839409  -0.884859
H  -0.138586  -1.263323   0.872479
H   0.729165  -0.145963   0.115856
H  -0.005340  -1.433677  -0.862540
