14
butane_opt
C  -3.949654   0.269227   0.040036
C  -2.691893  -0.634017   0.004907
H  -4.794342  -0.285829   0.164688
H  -4.051395   1.010756  -0.909889
H  -3.916402   0.880867   0.885749
C  -1.399574   0.180117   0.000425
H  -2.698726  -1.357900  -0.876346
H  -2.669540  -1.221788   0.830257
C  -0.170222  -0.684305   0.050305
H  -1.373596   0.842357   0.843696
H  -1.416579   0.815593  -0.890058
H  -0.182633  -1.335990   0.976565
H   0.775318  -0.058018   0.052682
H  -0.165964  -1.317073  -0.784645
