butane_opt
 OpenBabel08242015413D

 14 13  0  0  0  0  0  0  0  0999 V2000
   -3.9699    0.2764   -0.0048 C   0  0  0  0  0  0  0  0  0  0  0  0
   -2.6927   -0.6275    0.0455 C   0  0  0  0  0  0  0  0  0  0  0  0
   -4.8681   -0.3251    0.1455 H   0  0  0  0  0  0  0  0  0  0  0  0
   -4.0138    0.9633   -0.9492 H   0  0  0  0  0  0  0  0  0  0  0  0
   -3.9844    0.8684    0.8239 H   0  0  0  0  0  0  0  0  0  0  0  0
   -1.3878    0.1750    0.0399 C   0  0  0  0  0  0  0  0  0  0  0  0
   -2.6818   -1.2869   -0.7752 H   0  0  0  0  0  0  0  0  0  0  0  0
   -2.7207   -1.3217    0.9755 H   0  0  0  0  0  0  0  0  0  0  0  0
   -0.1583   -0.6892    0.0128 C   0  0  0  0  0  0  0  0  0  0  0  0
   -1.4022    0.8952    0.9185 H   0  0  0  0  0  0  0  0  0  0  0  0
   -1.3663    0.8071   -0.8382 H   0  0  0  0  0  0  0  0  0  0  0  0
   -0.1168   -1.2254    0.8590 H   0  0  0  0  0  0  0  0  0  0  0  0
    0.7726   -0.0884    0.0285 H   0  0  0  0  0  0  0  0  0  0  0  0
   -0.1404   -1.3683   -0.8818 H   0  0  0  0  0  0  0  0  0  0  0  0
  1  2  1  0  0  0  0
  1  3  1  0  0  0  0
  1  5  1  0  0  0  0
  2  8  1  0  0  0  0
  4  1  1  0  0  0  0
  6  2  1  0  0  0  0
  6 10  1  0  0  0  0
  7  2  1  0  0  0  0
  9 13  1  0  0  0  0
  9  6  1  0  0  0  0
  9 12  1  0  0  0  0
 11  6  1  0  0  0  0
 14  9  1  0  0  0  0
M  END
$$$$
