butane_opt
 OpenBabel08242015413D

 14 13  0  0  0  0  0  0  0  0999 V2000
   -3.9373    0.2557   -0.0019 C   0  0  0  0  0  0  0  0  0  0  0  0
   -2.7057   -0.5930    0.0565 C   0  0  0  0  0  0  0  0  0  0  0  0
   -4.8938   -0.3777    0.1133 H   0  0  0  0  0  0  0  0  0  0  0  0
   -4.0090    0.9822   -0.9934 H   0  0  0  0  0  0  0  0  0  0  0  0
   -3.9143    0.7717    0.7647 H   0  0  0  0  0  0  0  0  0  0  0  0
   -1.4002    0.1872    0.0418 C   0  0  0  0  0  0  0  0  0  0  0  0
   -2.6962   -1.2588   -0.8015 H   0  0  0  0  0  0  0  0  0  0  0  0
   -2.7516   -1.2430    0.9478 H   0  0  0  0  0  0  0  0  0  0  0  0
   -0.1563   -0.7060    0.0162 C   0  0  0  0  0  0  0  0  0  0  0  0
   -1.4064    0.9377    0.9219 H   0  0  0  0  0  0  0  0  0  0  0  0
   -1.4083    0.8018   -0.8272 H   0  0  0  0  0  0  0  0  0  0  0  0
   -0.0803   -1.2561    0.8607 H   0  0  0  0  0  0  0  0  0  0  0  0
    0.7278   -0.1181   -0.0098 H   0  0  0  0  0  0  0  0  0  0  0  0
   -0.1856   -1.4488   -0.9103 H   0  0  0  0  0  0  0  0  0  0  0  0
  1  2  1  0  0  0  0
  1  3  1  0  0  0  0
  1  5  1  0  0  0  0
  2  8  1  0  0  0  0
  4  1  1  0  0  0  0
  6  2  1  0  0  0  0
  6 10  1  0  0  0  0
  7  2  1  0  0  0  0
  9  6  1  0  0  0  0
  9 12  1  0  0  0  0
 11  6  1  0  0  0  0
 13  9  1  0  0  0  0
 14  9  1  0  0  0  0
M  END
$$$$
