14
butane_opt
C  -3.939536   0.258948   0.001226
C  -2.694905  -0.612383   0.038776
H  -4.857531  -0.329629   0.174549
H  -3.988759   0.979723  -0.930493
H  -3.924104   0.831636   0.793131
C  -1.411503   0.191028   0.043050
H  -2.679881  -1.286605  -0.809718
H  -2.782674  -1.236222   0.920476
C  -0.166805  -0.694378   0.016321
H  -1.388919   0.853084   0.882107
H  -1.399100   0.797631  -0.829408
H  -0.071541  -1.289818   0.903220
H   0.741051  -0.113902  -0.009253
H  -0.125112  -1.391784  -0.852901
