14
butane_opt
C  -3.957752   0.274992  -0.001424
C  -2.701120  -0.637958   0.069709
H  -4.864310  -0.306213   0.064058
H  -3.931618   0.965236  -0.970101
H  -4.041989   0.895184   0.812125
C  -1.397339   0.190296   0.031107
H  -2.677300  -1.312443  -0.753389
H  -2.708734  -1.310600   0.987603
C  -0.153156  -0.679836   0.007228
H  -1.386574   0.831802   0.846758
H  -1.376485   0.801974  -0.853157
H  -0.145182  -1.171497   0.842744
H   0.737816  -0.123430   0.128042
H  -0.119735  -1.509165  -0.960894
