14
butane_opt
C  -3.942799   0.258948   0.024239
C  -2.715819  -0.611462   0.040613
H  -4.861893  -0.348229  -0.107785
H  -3.966383   0.770946  -0.817394
H  -3.969313   1.083278   0.982662
C  -1.401615   0.188518  -0.007925
H  -2.742766  -1.271521  -0.820979
H  -2.748707  -1.253646   0.954441
C  -0.141992  -0.697107   0.044734
H  -1.368694   0.865710   0.831702
H  -1.418235   0.849217  -0.931142
H  -0.120965  -1.360479   0.983730
H   0.754008  -0.142801  -0.024217
H  -0.146999  -1.339660  -0.814010
