butane_opt
 OpenBabel08242015413D

 14 13  0  0  0  0  0  0  0  0999 V2000
   -3.9566    0.2720    0.0062 C   0  0  0  0  0  0  0  0  0  0  0  0
   -2.7045   -0.6286    0.0707 C   0  0  0  0  0  0  0  0  0  0  0  0
   -4.8154   -0.2611   -0.0281 H   0  0  0  0  0  0  0  0  0  0  0  0
   -3.9216    0.9141   -0.9035 H   0  0  0  0  0  0  0  0  0  0  0  0
   -4.0627    0.9405    0.8705 H   0  0  0  0  0  0  0  0  0  0  0  0
   -1.3883    0.1825    0.0170 C   0  0  0  0  0  0  0  0  0  0  0  0
   -2.7181   -1.3353   -0.7984 H   0  0  0  0  0  0  0  0  0  0  0  0
   -2.6996   -1.3070    0.9670 H   0  0  0  0  0  0  0  0  0  0  0  0
   -0.1618   -0.6903    0.0163 C   0  0  0  0  0  0  0  0  0  0  0  0
   -1.3876    0.8418    0.8543 H   0  0  0  0  0  0  0  0  0  0  0  0
   -1.3424    0.8258   -0.8839 H   0  0  0  0  0  0  0  0  0  0  0  0
   -0.1872   -1.2071    0.8467 H   0  0  0  0  0  0  0  0  0  0  0  0
    0.7499   -0.0744    0.0676 H   0  0  0  0  0  0  0  0  0  0  0  0
   -0.1085   -1.4282   -0.8894 H   0  0  0  0  0  0  0  0  0  0  0  0
  1  2  1  0  0  0  0
  1  5  1  0  0  0  0
  2  8  1  0  0  0  0
  3  1  1  0  0  0  0
  4  1  1  0  0  0  0
  6  2  1  0  0  0  0
  6 10  1  0  0  0  0
  7  2  1  0  0  0  0
  9  6  1  0  0  0  0
  9 13  1  0  0  0  0
  9 12  1  0  0  0  0
 11  6  1  0  0  0  0
 14  9  1  0  0  0  0
M  END
$$$$
