14
butane_opt
C  -3.932371   0.257759  -0.010006
C  -2.698605  -0.601595   0.074344
H  -4.895695  -0.386281  -0.089519
H  -3.873422   0.808072  -0.885069
H  -4.011999   0.958329   0.900834
C  -1.418925   0.191433   0.037751
H  -2.716245  -1.252956  -0.770125
H  -2.761735  -1.263076   1.006424
C  -0.151135  -0.707110   0.006427
H  -1.439696   0.869391   0.899584
H  -1.408526   0.868767  -0.871212
H  -0.097690  -1.287235   0.862307
H   0.755832  -0.112717  -0.055864
H  -0.154460  -1.368371  -0.862014
