14
butane_opt
C  -3.942547   0.252956   0.039263
C  -2.689150  -0.601134   0.014478
H  -4.897227  -0.370423   0.088592
H  -3.945281   0.905849  -0.879441
H  -3.917509   0.922531   0.930320
C  -1.407787   0.190707  -0.013094
H  -2.717697  -1.293535  -0.832095
H  -2.717786  -1.248781   0.911332
C  -0.164617  -0.700066   0.052900
H  -1.458122   0.844061   0.840386
H  -1.390142   0.871144  -0.936245
H  -0.150068  -1.283852   0.918446
H   0.755373  -0.124237   0.110182
H  -0.131356  -1.405074  -0.836298
