14
butane_opt
C  -3.938139   0.279315  -0.006149
C  -2.692193  -0.616470   0.073087
H  -4.858883  -0.325742   0.039801
H  -4.018144   0.922384  -0.913768
H  -3.963278   0.892242   0.802042
C  -1.390792   0.161863   0.025783
H  -2.694239  -1.317087  -0.799485
H  -2.696554  -1.278686   0.988812
C  -0.181230  -0.681217   0.013710
H  -1.366111   0.821633   0.893753
H  -1.414085   0.806403  -0.873153
H  -0.194666  -1.193753   0.833152
H   0.768387  -0.083797   0.103619
H  -0.159164  -1.433298  -0.928454
