butane_opt
 OpenBabel08242015413D

 14 13  0  0  0  0  0  0  0  0999 V2000
   -3.9401    0.2734   -0.0015 C   0  0  0  0  0  0  0  0  0  0  0  0
   -2.6945   -0.6258    0.0681 C   0  0  0  0  0  0  0  0  0  0  0  0
   -4.8623   -0.3394   -0.0007 H   0  0  0  0  0  0  0  0  0  0  0  0
   -3.9494    0.9086   -0.9015 H   0  0  0  0  0  0  0  0  0  0  0  0
   -3.9754    0.9173    0.8395 H   0  0  0  0  0  0  0  0  0  0  0  0
   -1.3992    0.1819    0.0186 C   0  0  0  0  0  0  0  0  0  0  0  0
   -2.7390   -1.2897   -0.7600 H   0  0  0  0  0  0  0  0  0  0  0  0
   -2.6837   -1.2824    0.9840 H   0  0  0  0  0  0  0  0  0  0  0  0
   -0.1702   -0.6949    0.0185 C   0  0  0  0  0  0  0  0  0  0  0  0
   -1.3629    0.9002    0.8783 H   0  0  0  0  0  0  0  0  0  0  0  0
   -1.3683    0.8320   -0.8854 H   0  0  0  0  0  0  0  0  0  0  0  0
   -0.1613   -1.1974    0.8454 H   0  0  0  0  0  0  0  0  0  0  0  0
    0.7093   -0.1065    0.0854 H   0  0  0  0  0  0  0  0  0  0  0  0
   -0.1757   -1.4413   -0.9076 H   0  0  0  0  0  0  0  0  0  0  0  0
  1  3  1  0  0  0  0
  1  2  1  0  0  0  0
  1  5  1  0  0  0  0
  2  8  1  0  0  0  0
  4  1  1  0  0  0  0
  6  2  1  0  0  0  0
  6 10  1  0  0  0  0
  7  2  1  0  0  0  0
  9  6  1  0  0  0  0
  9 13  1  0  0  0  0
  9 12  1  0  0  0  0
 11  6  1  0  0  0  0
 14  9  1  0  0  0  0
M  END
$$$$
