butane_opt
 OpenBabel08242015413D

 14 13  0  0  0  0  0  0  0  0999 V2000
   -3.9582    0.2566    0.0542 C   0  0  0  0  0  0  0  0  0  0  0  0
   -2.6956   -0.6015   -0.0009 C   0  0  0  0  0  0  0  0  0  0  0  0
   -4.8878   -0.3402    0.1054 H   0  0  0  0  0  0  0  0  0  0  0  0
   -4.0316    0.8755   -0.8334 H   0  0  0  0  0  0  0  0  0  0  0  0
   -3.8751    0.8931    0.8996 H   0  0  0  0  0  0  0  0  0  0  0  0
   -1.4030    0.1919   -0.0268 C   0  0  0  0  0  0  0  0  0  0  0  0
   -2.7373   -1.3380   -0.8835 H   0  0  0  0  0  0  0  0  0  0  0  0
   -2.7217   -1.2185    0.8657 H   0  0  0  0  0  0  0  0  0  0  0  0
   -0.1500   -0.7010    0.0650 C   0  0  0  0  0  0  0  0  0  0  0  0
   -1.4003    0.8976    0.8315 H   0  0  0  0  0  0  0  0  0  0  0  0
   -1.3964    0.8230   -0.9285 H   0  0  0  0  0  0  0  0  0  0  0  0
   -0.1705   -1.3822    0.9965 H   0  0  0  0  0  0  0  0  0  0  0  0
    0.7520   -0.1001    0.0644 H   0  0  0  0  0  0  0  0  0  0  0  0
   -0.0726   -1.3359   -0.7709 H   0  0  0  0  0  0  0  0  0  0  0  0
  1  3  1  0  0  0  0
  1  5  1  0  0  0  0
  2  1  1  0  0  0  0
  2  8  1  0  0  0  0
  4  1  1  0  0  0  0
  6  2  1  0  0  0  0
  6  9  1  0  0  0  0
  6 10  1  0  0  0  0
  7  2  1  0  0  0  0
  9 12  1  0  0  0  0
 11  6  1  0  0  0  0
 13  9  1  0  0  0  0
 14  9  1  0  0  0  0
M  END
$$$$
