butane_opt
 OpenBabel08242015413D

 14 13  0  0  0  0  0  0  0  0999 V2000
   -3.9383    0.2698   -0.0175 C   0  0  0  0  0  0  0  0  0  0  0  0
   -2.7044   -0.6339    0.0567 C   0  0  0  0  0  0  0  0  0  0  0  0
   -4.8321   -0.2874    0.0353 H   0  0  0  0  0  0  0  0  0  0  0  0
   -3.9619    0.9268   -0.9246 H   0  0  0  0  0  0  0  0  0  0  0  0
   -3.9708    0.9026    0.8143 H   0  0  0  0  0  0  0  0  0  0  0  0
   -1.4075    0.1844    0.0541 C   0  0  0  0  0  0  0  0  0  0  0  0
   -2.6668   -1.2376   -0.7594 H   0  0  0  0  0  0  0  0  0  0  0  0
   -2.7127   -1.2911    0.9722 H   0  0  0  0  0  0  0  0  0  0  0  0
   -0.1649   -0.6905    0.0083 C   0  0  0  0  0  0  0  0  0  0  0  0
   -1.3614    0.9312    0.9672 H   0  0  0  0  0  0  0  0  0  0  0  0
   -1.4279    0.7535   -0.7915 H   0  0  0  0  0  0  0  0  0  0  0  0
   -0.0427   -1.3195    0.8950 H   0  0  0  0  0  0  0  0  0  0  0  0
    0.7610   -0.0689   -0.1700 H   0  0  0  0  0  0  0  0  0  0  0  0
   -0.2348   -1.3327   -0.8234 H   0  0  0  0  0  0  0  0  0  0  0  0
  1  3  1  0  0  0  0
  1  2  1  0  0  0  0
  1  5  1  0  0  0  0
  2  8  1  0  0  0  0
  4  1  1  0  0  0  0
  6  2  1  0  0  0  0
  6 10  1  0  0  0  0
  7  2  1  0  0  0  0
  9  6  1  0  0  0  0
  9 12  1  0  0  0  0
 11  6  1  0  0  0  0
 13  9  1  0  0  0  0
 14  9  1  0  0  0  0
M  END
$$$$
