butane_opt
 OpenBabel08242015413D

 14 13  0  0  0  0  0  0  0  0999 V2000
   -3.9315    0.2538   -0.0158 C   0  0  0  0  0  0  0  0  0  0  0  0
   -2.6920   -0.6001    0.0582 C   0  0  0  0  0  0  0  0  0  0  0  0
   -4.8692   -0.4043    0.0204 H   0  0  0  0  0  0  0  0  0  0  0  0
   -3.9534    0.9252   -0.9402 H   0  0  0  0  0  0  0  0  0  0  0  0
   -3.9236    0.8628    0.8110 H   0  0  0  0  0  0  0  0  0  0  0  0
   -1.4103    0.2022    0.0569 C   0  0  0  0  0  0  0  0  0  0  0  0
   -2.7196   -1.2635   -0.7725 H   0  0  0  0  0  0  0  0  0  0  0  0
   -2.7175   -1.2876    0.9964 H   0  0  0  0  0  0  0  0  0  0  0  0
   -0.1689   -0.7078   -0.0015 C   0  0  0  0  0  0  0  0  0  0  0  0
   -1.4035    0.9399    0.9739 H   0  0  0  0  0  0  0  0  0  0  0  0
   -1.4424    0.7967   -0.7975 H   0  0  0  0  0  0  0  0  0  0  0  0
   -0.0628   -1.3532    0.9038 H   0  0  0  0  0  0  0  0  0  0  0  0
    0.7195   -0.1414   -0.0949 H   0  0  0  0  0  0  0  0  0  0  0  0
   -0.2094   -1.3263   -0.8434 H   0  0  0  0  0  0  0  0  0  0  0  0
  1  3  1  0  0  0  0
  1  2  1  0  0  0  0
  1  5  1  0  0  0  0
  2  8  1  0  0  0  0
  4  1  1  0  0  0  0
  6  2  1  0  0  0  0
  6 10  1  0  0  0  0
  7  2  1  0  0  0  0
  9  6  1  0  0  0  0
  9 12  1  0  0  0  0
 11  6  1  0  0  0  0
 13  9  1  0  0  0  0
 14  9  1  0  0  0  0
M  END
$$$$
