butane_opt
 OpenBabel08242015413D

 14 13  0  0  0  0  0  0  0  0999 V2000
   -3.9245    0.2612   -0.0002 C   0  0  0  0  0  0  0  0  0  0  0  0
   -2.7053   -0.6139    0.0626 C   0  0  0  0  0  0  0  0  0  0  0  0
   -4.8633   -0.3230   -0.0842 H   0  0  0  0  0  0  0  0  0  0  0  0
   -3.9205    0.8228   -0.8640 H   0  0  0  0  0  0  0  0  0  0  0  0
   -3.9400    0.9814    0.8997 H   0  0  0  0  0  0  0  0  0  0  0  0
   -1.4069    0.1931    0.0243 C   0  0  0  0  0  0  0  0  0  0  0  0
   -2.6692   -1.2418   -0.7232 H   0  0  0  0  0  0  0  0  0  0  0  0
   -2.7902   -1.3092    0.9961 H   0  0  0  0  0  0  0  0  0  0  0  0
   -0.1641   -0.6995    0.0132 C   0  0  0  0  0  0  0  0  0  0  0  0
   -1.3944    0.8825    0.8684 H   0  0  0  0  0  0  0  0  0  0  0  0
   -1.4435    0.8194   -0.8760 H   0  0  0  0  0  0  0  0  0  0  0  0
   -0.1532   -1.2800    0.8731 H   0  0  0  0  0  0  0  0  0  0  0  0
    0.7139   -0.1392    0.0232 H   0  0  0  0  0  0  0  0  0  0  0  0
   -0.1517   -1.3814   -0.8683 H   0  0  0  0  0  0  0  0  0  0  0  0
  1  2  1  0  0  0  0
  1  5  1  0  0  0  0
  2  8  1  0  0  0  0
  3  1  1  0  0  0  0
  4  1  1  0  0  0  0
  6  2  1  0  0  0  0
  6 10  1  0  0  0  0
  7  2  1  0  0  0  0
  9 13  1  0  0  0  0
  9  6  1  0  0  0  0
  9 12  1  0  0  0  0
 11  6  1  0  0  0  0
 14  9  1  0  0  0  0
M  END
$$$$
