14
butane_opt
C  -3.944148   0.246154   0.014684
C  -2.712501  -0.608068   0.051741
H  -4.851371  -0.323607  -0.033922
H  -3.900808   0.822380  -0.861088
H  -4.049854   0.953658   0.890653
C  -1.409134   0.208606   0.004440
H  -2.729363  -1.218941  -0.782679
H  -2.708152  -1.284382   0.974901
C  -0.138526  -0.710246   0.024498
H  -1.375714   0.919113   0.893963
H  -1.433962   0.859404  -0.899679
H  -0.147874  -1.279066   0.898431
H   0.744621  -0.142236   0.056472
H  -0.106469  -1.429262  -0.839254
