14
butane_opt
C  -3.942872   0.262691   0.001628
C  -2.689827  -0.622765   0.070112
H  -4.833377  -0.288396  -0.080534
H  -3.862772   0.865301  -0.902277
H  -4.080748   0.994081   0.881372
C  -1.405371   0.173106   0.023177
H  -2.667600  -1.277042  -0.740657
H  -2.691031  -1.279894   0.997612
C  -0.178249  -0.682669   0.010472
H  -1.344291   0.890805   0.889216
H  -1.405021   0.831802  -0.876577
H  -0.144704  -1.281620   0.891889
H   0.752686  -0.091460   0.024740
H  -0.153531  -1.404052  -0.905694
