butane_opt
 OpenBabel08242015413D

 14 13  0  0  0  0  0  0  0  0999 V2000
   -3.9469    0.2621    0.0483 C   0  0  0  0  0  0  0  0  0  0  0  0
   -2.7214   -0.6088   -0.0103 C   0  0  0  0  0  0  0  0  0  0  0  0
   -4.8308   -0.3222    0.2048 H   0  0  0  0  0  0  0  0  0  0  0  0
   -4.0074    0.8910   -0.8430 H   0  0  0  0  0  0  0  0  0  0  0  0
   -3.8744    0.8714    0.9009 H   0  0  0  0  0  0  0  0  0  0  0  0
   -1.4020    0.1978   -0.0191 C   0  0  0  0  0  0  0  0  0  0  0  0
   -2.8013   -1.3653   -0.9009 H   0  0  0  0  0  0  0  0  0  0  0  0
   -2.6675   -1.2051    0.8515 H   0  0  0  0  0  0  0  0  0  0  0  0
   -0.1457   -0.7056    0.0744 C   0  0  0  0  0  0  0  0  0  0  0  0
   -1.4363    0.8580    0.8117 H   0  0  0  0  0  0  0  0  0  0  0  0
   -1.3644    0.8791   -0.9500 H   0  0  0  0  0  0  0  0  0  0  0  0
   -0.1271   -1.3317    0.9885 H   0  0  0  0  0  0  0  0  0  0  0  0
    0.7793   -0.1171    0.0433 H   0  0  0  0  0  0  0  0  0  0  0  0
   -0.1104   -1.3669   -0.7906 H   0  0  0  0  0  0  0  0  0  0  0  0
  1  3  1  0  0  0  0
  1  5  1  0  0  0  0
  2  1  1  0  0  0  0
  2  8  1  0  0  0  0
  4  1  1  0  0  0  0
  6  2  1  0  0  0  0
  6  9  1  0  0  0  0
  6 10  1  0  0  0  0
  7  2  1  0  0  0  0
  9 12  1  0  0  0  0
 11  6  1  0  0  0  0
 13  9  1  0  0  0  0
 14  9  1  0  0  0  0
M  END
$$$$
