14
butane_opt
C  -3.949811   0.275727  -0.013658
C  -2.707039  -0.628088   0.072639
H  -4.870608  -0.321650  -0.006986
H  -3.974596   0.923069  -0.933435
H  -4.032591   0.923997   0.851627
C  -1.391462   0.185831   0.046867
H  -2.690363  -1.369070  -0.790325
H  -2.730155  -1.255909   0.959044
C  -0.160831  -0.687349   0.003779
H  -1.325938   0.867468   0.915708
H  -1.381047   0.804218  -0.836307
H  -0.081121  -1.335079   0.921342
H   0.733675  -0.098001  -0.088463
H  -0.162096  -1.359761  -0.871597
