butane_opt
 OpenBabel08242015413D

 14 13  0  0  0  0  0  0  0  0999 V2000
   -3.9454    0.2816    0.0338 C   0  0  0  0  0  0  0  0  0  0  0  0
   -2.6958   -0.6236   -0.0007 C   0  0  0  0  0  0  0  0  0  0  0  0
   -4.8483   -0.3335    0.1293 H   0  0  0  0  0  0  0  0  0  0  0  0
   -4.0439    0.8708   -0.8423 H   0  0  0  0  0  0  0  0  0  0  0  0
   -3.9004    0.9342    0.8909 H   0  0  0  0  0  0  0  0  0  0  0  0
   -1.3970    0.1694    0.0071 C   0  0  0  0  0  0  0  0  0  0  0  0
   -2.6936   -1.3412   -0.8669 H   0  0  0  0  0  0  0  0  0  0  0  0
   -2.6467   -1.2551    0.8970 H   0  0  0  0  0  0  0  0  0  0  0  0
   -0.1755   -0.6840    0.0493 C   0  0  0  0  0  0  0  0  0  0  0  0
   -1.3679    0.8462    0.8385 H   0  0  0  0  0  0  0  0  0  0  0  0
   -1.3657    0.8117   -0.8910 H   0  0  0  0  0  0  0  0  0  0  0  0
   -0.1740   -1.3937    1.0082 H   0  0  0  0  0  0  0  0  0  0  0  0
    0.7591   -0.0715   -0.0171 H   0  0  0  0  0  0  0  0  0  0  0  0
   -0.1804   -1.2546   -0.7700 H   0  0  0  0  0  0  0  0  0  0  0  0
  1  3  1  0  0  0  0
  1  5  1  0  0  0  0
  2  6  1  0  0  0  0
  2  1  1  0  0  0  0
  2  8  1  0  0  0  0
  4  1  1  0  0  0  0
  6  9  1  0  0  0  0
  6 10  1  0  0  0  0
  7  2  1  0  0  0  0
  9 12  1  0  0  0  0
 11  6  1  0  0  0  0
 13  9  1  0  0  0  0
 14  9  1  0  0  0  0
M  END
$$$$
