14
butane_opt
C  -3.948654   0.267757   0.028045
C  -2.708334  -0.620078   0.018987
H  -4.877969  -0.324893   0.011433
H  -4.012515   0.869631  -0.864333
H  -3.962792   0.932639   0.895843
C  -1.387761   0.193122   0.015057
H  -2.755312  -1.330487  -0.842640
H  -2.712327  -1.204287   0.875767
C  -0.154131  -0.701860   0.047772
H  -1.402257   0.849532   0.848013
H  -1.419315   0.832587  -0.883910
H  -0.062252  -1.385540   0.964178
H   0.777882  -0.110356  -0.114710
H  -0.207765  -1.262372  -0.760809
