butane_opt
 OpenBabel08242015413D

 14 13  0  0  0  0  0  0  0  0999 V2000
   -3.9364    0.2610    0.0578 C   0  0  0  0  0  0  0  0  0  0  0  0
   -2.6951   -0.6022    0.0084 C   0  0  0  0  0  0  0  0  0  0  0  0
   -4.8901   -0.3586    0.0082 H   0  0  0  0  0  0  0  0  0  0  0  0
   -3.9144    0.7915   -0.7895 H   0  0  0  0  0  0  0  0  0  0  0  0
   -3.9208    0.9496    0.9146 H   0  0  0  0  0  0  0  0  0  0  0  0
   -1.4163    0.1895   -0.0364 C   0  0  0  0  0  0  0  0  0  0  0  0
   -2.7712   -1.2782   -0.8763 H   0  0  0  0  0  0  0  0  0  0  0  0
   -2.6669   -1.2622    0.9070 H   0  0  0  0  0  0  0  0  0  0  0  0
   -0.1648   -0.7011    0.0650 C   0  0  0  0  0  0  0  0  0  0  0  0
   -1.4285    0.8505    0.8085 H   0  0  0  0  0  0  0  0  0  0  0  0
   -1.3975    0.8528   -0.9659 H   0  0  0  0  0  0  0  0  0  0  0  0
   -0.1638   -1.3063    0.9725 H   0  0  0  0  0  0  0  0  0  0  0  0
    0.7592   -0.1086    0.1229 H   0  0  0  0  0  0  0  0  0  0  0  0
   -0.0830   -1.3745   -0.7938 H   0  0  0  0  0  0  0  0  0  0  0  0
  1  5  1  0  0  0  0
  2  1  1  0  0  0  0
  2  8  1  0  0  0  0
  3  1  1  0  0  0  0
  4  1  1  0  0  0  0
  6  2  1  0  0  0  0
  6  9  1  0  0  0  0
  6 10  1  0  0  0  0
  7  2  1  0  0  0  0
  9 13  1  0  0  0  0
  9 12  1  0  0  0  0
 11  6  1  0  0  0  0
 14  9  1  0  0  0  0
M  END
$$$$
