14
butane_opt
C  -3.946345   0.258539  -0.016497
C  -2.711885  -0.615715   0.053128
H  -4.864551  -0.341314   0.170529
H  -4.020751   0.994147  -0.975218
H  -3.931293   0.854800   0.814908
C  -1.391652   0.199779   0.050953
H  -2.697353  -1.247512  -0.754605
H  -2.776887  -1.287783   0.985230
C  -0.150835  -0.697695  -0.000300
H  -1.391597   0.895201   0.937542
H  -1.404602   0.785774  -0.812380
H  -0.121596  -1.278415   0.869672
H   0.726645  -0.166641   0.048989
H  -0.125885  -1.419125  -0.904934
