14
butane_opt
C  -3.954372   0.254336   0.038949
C  -2.708033  -0.607926   0.019973
H  -4.880295  -0.357168   0.143095
H  -3.976496   0.881551  -0.862005
H  -3.880932   0.927448   0.922609
C  -1.414493   0.197750  -0.021944
H  -2.763606  -1.316739  -0.870314
H  -2.670237  -1.173849   0.839533
C  -0.142621  -0.704724   0.060157
H  -1.382625   0.835175   0.797111
H  -1.387174   0.879243  -0.946287
H  -0.186449  -1.297548   0.938843
H   0.783158  -0.128898   0.133378
H  -0.043926  -1.397119  -0.820815
