14
butane_opt
C  -3.941652   0.257561  -0.025027
C  -2.692270  -0.603736   0.064257
H  -4.879946  -0.375080   0.057804
H  -3.925676   0.866940  -0.910352
H  -3.945603   0.935391   0.831477
C  -1.415056   0.186992   0.060334
H  -2.686474  -1.268674  -0.771709
H  -2.751756  -1.246892   0.973239
C  -0.156051  -0.692770   0.001951
H  -1.386561   0.905141   0.907839
H  -1.419413   0.760663  -0.787252
H  -0.036792  -1.389277   0.937899
H   0.699678  -0.129744  -0.149372
H  -0.226005  -1.313757  -0.857211
