butane_opt
 OpenBabel08242015413D

 14 13  0  0  0  0  0  0  0  0999 V2000
   -3.9521    0.2661    0.0247 C   0  0  0  0  0  0  0  0  0  0  0  0
   -2.7003   -0.6197    0.0382 C   0  0  0  0  0  0  0  0  0  0  0  0
   -4.8603   -0.3090   -0.0698 H   0  0  0  0  0  0  0  0  0  0  0  0
   -3.9446    0.7681   -0.8134 H   0  0  0  0  0  0  0  0  0  0  0  0
   -3.9718    1.0506    0.9818 H   0  0  0  0  0  0  0  0  0  0  0  0
   -1.4070    0.1831   -0.0073 C   0  0  0  0  0  0  0  0  0  0  0  0
   -2.6780   -1.2725   -0.7950 H   0  0  0  0  0  0  0  0  0  0  0  0
   -2.7407   -1.2555    0.9347 H   0  0  0  0  0  0  0  0  0  0  0  0
   -0.1511   -0.6939    0.0453 C   0  0  0  0  0  0  0  0  0  0  0  0
   -1.3769    0.8036    0.8038 H   0  0  0  0  0  0  0  0  0  0  0  0
   -1.3781    0.8532   -0.9063 H   0  0  0  0  0  0  0  0  0  0  0  0
   -0.1805   -1.3077    0.9189 H   0  0  0  0  0  0  0  0  0  0  0  0
    0.7634   -0.0943   -0.0021 H   0  0  0  0  0  0  0  0  0  0  0  0
   -0.1276   -1.3362   -0.8113 H   0  0  0  0  0  0  0  0  0  0  0  0
  1  2  1  0  0  0  0
  1  5  1  0  0  0  0
  2  8  1  0  0  0  0
  3  1  1  0  0  0  0
  4  1  1  0  0  0  0
  6  2  1  0  0  0  0
  6  9  1  0  0  0  0
  6 10  1  0  0  0  0
  7  2  1  0  0  0  0
  9 12  1  0  0  0  0
 11  6  1  0  0  0  0
 13  9  1  0  0  0  0
 14  9  1  0  0  0  0
M  END
$$$$
