14
butane_opt
C  -3.946972   0.277904   0.015144
C  -2.693127  -0.625439   0.037313
H  -4.868584  -0.317139  -0.028131
H  -3.942495   0.883198  -0.890276
H  -4.004705   0.993958   0.895178
C  -1.401145   0.158637   0.026016
H  -2.767983  -1.302385  -0.815236
H  -2.677402  -1.254596   0.913619
C  -0.165187  -0.681832   0.023114
H  -1.366466   0.892847   0.891469
H  -1.393235   0.761872  -0.857409
H  -0.091392  -1.406579   0.982710
H   0.767959  -0.033369  -0.098087
H  -0.211143  -1.233437  -0.760380
