butane_opt
 OpenBabel08242015413D

 14 13  0  0  0  0  0  0  0  0999 V2000
   -3.9396    0.2731    0.0058 C   0  0  0  0  0  0  0  0  0  0  0  0
   -2.6913   -0.6251    0.0380 C   0  0  0  0  0  0  0  0  0  0  0  0
   -4.8158   -0.2916    0.1819 H   0  0  0  0  0  0  0  0  0  0  0  0
   -4.0181    0.9866   -0.9499 H   0  0  0  0  0  0  0  0  0  0  0  0
   -3.9009    0.8321    0.7777 H   0  0  0  0  0  0  0  0  0  0  0  0
   -1.4077    0.1707    0.0290 C   0  0  0  0  0  0  0  0  0  0  0  0
   -2.7302   -1.2692   -0.8143 H   0  0  0  0  0  0  0  0  0  0  0  0
   -2.7117   -1.2544    0.9196 H   0  0  0  0  0  0  0  0  0  0  0  0
   -0.1743   -0.6816    0.0284 C   0  0  0  0  0  0  0  0  0  0  0  0
   -1.4097    0.8897    0.8924 H   0  0  0  0  0  0  0  0  0  0  0  0
   -1.3700    0.7472   -0.8151 H   0  0  0  0  0  0  0  0  0  0  0  0
   -0.1356   -1.2648    0.8953 H   0  0  0  0  0  0  0  0  0  0  0  0
    0.7823   -0.0654   -0.0152 H   0  0  0  0  0  0  0  0  0  0  0  0
   -0.1724   -1.4145   -0.8672 H   0  0  0  0  0  0  0  0  0  0  0  0
  1  2  1  0  0  0  0
  1  3  1  0  0  0  0
  1  5  1  0  0  0  0
  2  8  1  0  0  0  0
  4  1  1  0  0  0  0
  6  2  1  0  0  0  0
  6 10  1  0  0  0  0
  7  2  1  0  0  0  0
  9  6  1  0  0  0  0
  9 12  1  0  0  0  0
 11  6  1  0  0  0  0
 13  9  1  0  0  0  0
 14  9  1  0  0  0  0
M  END
$$$$
