butane_opt
 OpenBabel08242015413D

 14 13  0  0  0  0  0  0  0  0999 V2000
   -3.9436    0.2810    0.0062 C   0  0  0  0  0  0  0  0  0  0  0  0
   -2.6938   -0.6207    0.0540 C   0  0  0  0  0  0  0  0  0  0  0  0
   -4.8688   -0.3283    0.0226 H   0  0  0  0  0  0  0  0  0  0  0  0
   -3.9524    0.8819   -0.8799 H   0  0  0  0  0  0  0  0  0  0  0  0
   -3.9428    0.9156    0.8535 H   0  0  0  0  0  0  0  0  0  0  0  0
   -1.4002    0.1619    0.0136 C   0  0  0  0  0  0  0  0  0  0  0  0
   -2.6844   -1.2791   -0.7530 H   0  0  0  0  0  0  0  0  0  0  0  0
   -2.6948   -1.3083    0.9947 H   0  0  0  0  0  0  0  0  0  0  0  0
   -0.1762   -0.6788    0.0225 C   0  0  0  0  0  0  0  0  0  0  0  0
   -1.4195    0.8602    0.8644 H   0  0  0  0  0  0  0  0  0  0  0  0
   -1.3683    0.8200   -0.8896 H   0  0  0  0  0  0  0  0  0  0  0  0
   -0.1669   -1.2334    0.8416 H   0  0  0  0  0  0  0  0  0  0  0  0
    0.7739   -0.0589    0.1190 H   0  0  0  0  0  0  0  0  0  0  0  0
   -0.1469   -1.4571   -0.9021 H   0  0  0  0  0  0  0  0  0  0  0  0
  1  3  1  0  0  0  0
  1  2  1  0  0  0  0
  1  5  1  0  0  0  0
  2  8  1  0  0  0  0
  4  1  1  0  0  0  0
  6  9  1  0  0  0  0
  6  2  1  0  0  0  0
  6 10  1  0  0  0  0
  7  2  1  0  0  0  0
  9 13  1  0  0  0  0
  9 12  1  0  0  0  0
 11  6  1  0  0  0  0
 14  9  1  0  0  0  0
M  END
$$$$
