butane_opt
 OpenBabel08242015413D

 14 13  0  0  0  0  0  0  0  0999 V2000
   -3.9591    0.2795    0.0007 C   0  0  0  0  0  0  0  0  0  0  0  0
   -2.6957   -0.6351    0.0643 C   0  0  0  0  0  0  0  0  0  0  0  0
   -4.8415   -0.2983    0.0916 H   0  0  0  0  0  0  0  0  0  0  0  0
   -4.0094    0.9458   -0.9529 H   0  0  0  0  0  0  0  0  0  0  0  0
   -3.9719    0.8765    0.8224 H   0  0  0  0  0  0  0  0  0  0  0  0
   -1.4044    0.1777    0.0140 C   0  0  0  0  0  0  0  0  0  0  0  0
   -2.6957   -1.3103   -0.7625 H   0  0  0  0  0  0  0  0  0  0  0  0
   -2.7683   -1.2848    0.9800 H   0  0  0  0  0  0  0  0  0  0  0  0
   -0.1507   -0.6823    0.0114 C   0  0  0  0  0  0  0  0  0  0  0  0
   -1.3616    0.8990    0.9190 H   0  0  0  0  0  0  0  0  0  0  0  0
   -1.4219    0.7674   -0.8542 H   0  0  0  0  0  0  0  0  0  0  0  0
   -0.1661   -1.2390    0.8657 H   0  0  0  0  0  0  0  0  0  0  0  0
    0.8087   -0.0389    0.1545 H   0  0  0  0  0  0  0  0  0  0  0  0
   -0.0943   -1.4526   -0.9161 H   0  0  0  0  0  0  0  0  0  0  0  0
  1  2  1  0  0  0  0
  1  3  1  0  0  0  0
  1  5  1  0  0  0  0
  2  8  1  0  0  0  0
  4  1  1  0  0  0  0
  6  2  1  0  0  0  0
  6 10  1  0  0  0  0
  7  2  1  0  0  0  0
  9  6  1  0  0  0  0
  9 13  1  0  0  0  0
  9 12  1  0  0  0  0
 11  6  1  0  0  0  0
 14  9  1  0  0  0  0
M  END
$$$$
