14
butane_opt
C  -3.939899   0.264217   0.039685
C  -2.703512  -0.624644   0.011035
H  -4.856852  -0.330360  -0.020388
H  -3.938610   0.778737  -0.787471
H  -4.012610   1.048674   0.970539
C  -1.404584   0.197833  -0.019192
H  -2.783605  -1.261114  -0.803969
H  -2.742044  -1.273978   0.929590
C  -0.156067  -0.699902   0.060164
H  -1.395454   0.877948   0.849046
H  -1.390333   0.860702  -0.955025
H  -0.112234  -1.377587   0.960149
H   0.772446  -0.096488  -0.006693
H  -0.120256  -1.347785  -0.778631
