14
butane_opt
C  -3.952498   0.262049   0.021823
C  -2.713503  -0.605212   0.055670
H  -4.900772  -0.383266   0.032758
H  -3.912496   0.897881  -0.926116
H  -3.983925   0.860308   0.824395
C  -1.404219   0.200399   0.001851
H  -2.742764  -1.277513  -0.806155
H  -2.708632  -1.252263   0.967818
C  -0.145679  -0.707919   0.027235
H  -1.375926   0.874878   0.864900
H  -1.364540   0.859440  -0.899220
H  -0.175175  -1.216207   0.862868
H   0.768582  -0.125606   0.147943
H  -0.033092  -1.511731  -0.928907
