butane_opt
 OpenBabel08242015413D

 14 13  0  0  0  0  0  0  0  0999 V2000
   -3.9413    0.2545   -0.0041 C   0  0  0  0  0  0  0  0  0  0  0  0
   -2.7049   -0.6068    0.0726 C   0  0  0  0  0  0  0  0  0  0  0  0
   -4.8963   -0.3624    0.0945 H   0  0  0  0  0  0  0  0  0  0  0  0
   -3.9442    0.9747   -0.9492 H   0  0  0  0  0  0  0  0  0  0  0  0
   -4.0221    0.8695    0.8189 H   0  0  0  0  0  0  0  0  0  0  0  0
   -1.4146    0.1897    0.0203 C   0  0  0  0  0  0  0  0  0  0  0  0
   -2.7297   -1.2708   -0.7923 H   0  0  0  0  0  0  0  0  0  0  0  0
   -2.7652   -1.2474    0.9748 H   0  0  0  0  0  0  0  0  0  0  0  0
   -0.1390   -0.7004    0.0155 C   0  0  0  0  0  0  0  0  0  0  0  0
   -1.3996    0.8865    0.8995 H   0  0  0  0  0  0  0  0  0  0  0  0
   -1.4090    0.8089   -0.8725 H   0  0  0  0  0  0  0  0  0  0  0  0
   -0.1227   -1.1758    0.8298 H   0  0  0  0  0  0  0  0  0  0  0  0
    0.7691   -0.1208    0.1145 H   0  0  0  0  0  0  0  0  0  0  0  0
   -0.0983   -1.4875   -0.9456 H   0  0  0  0  0  0  0  0  0  0  0  0
  1  2  1  0  0  0  0
  1  3  1  0  0  0  0
  1  5  1  0  0  0  0
  2  8  1  0  0  0  0
  4  1  1  0  0  0  0
  6  2  1  0  0  0  0
  6 10  1  0  0  0  0
  7  2  1  0  0  0  0
  9  6  1  0  0  0  0
  9 13  1  0  0  0  0
  9 12  1  0  0  0  0
 11  6  1  0  0  0  0
 14  9  1  0  0  0  0
M  END
$$$$
