14
butane_opt
C  -3.945345   0.264157   0.041757
C  -2.706743  -0.627253   0.008068
H  -4.818445  -0.275152   0.011127
H  -3.979873   0.821189  -0.851257
H  -3.964334   1.004416   0.947651
C  -1.397591   0.191123  -0.007898
H  -2.716894  -1.329961  -0.857321
H  -2.696009  -1.229858   0.898289
C  -0.162350  -0.697347   0.051986
H  -1.364411   0.907258   0.873840
H  -1.413368   0.829104  -0.903235
H  -0.171756  -1.419017   1.014483
H   0.776353  -0.102918  -0.094398
H  -0.131257  -1.237034  -0.709717
