14
butane_opt
C  -3.953939   0.277097   0.025575
C  -2.694278  -0.629197   0.021874
H  -4.835157  -0.289494  -0.012571
H  -3.960414   0.834504  -0.854205
H  -3.961577   1.006372   0.904921
C  -1.400647   0.171014   0.011127
H  -2.687929  -1.335809  -0.835438
H  -2.702022  -1.282152   0.934349
C  -0.163742  -0.681174   0.043040
H  -1.415018   0.871740   0.887990
H  -1.391091   0.782801  -0.883711
H  -0.080502  -1.384846   0.993369
H   0.798166  -0.072928  -0.132886
H  -0.250255  -1.237143  -0.765429
