14
butane_opt
C  -3.948278   0.251639   0.022678
C  -2.707471  -0.617445   0.022981
H  -4.839983  -0.316541   0.156217
H  -4.014552   0.986349  -0.962988
H  -3.902857   0.833927   0.812211
C  -1.416392   0.201678   0.025592
H  -2.743103  -1.271742  -0.819185
H  -2.738605  -1.211216   0.896540
C  -0.141387  -0.704407   0.032586
H  -1.401123   0.899207   0.855804
H  -1.386508   0.834096  -0.868547
H  -0.060494  -1.294442   0.928826
H   0.760866  -0.110647   0.041151
H  -0.136587  -1.400786  -0.856020
