14
butane_opt
C  -3.926240   0.254172  -0.008394
C  -2.710421  -0.601132   0.087311
H  -4.850747  -0.346694  -0.120305
H  -3.823720   0.839813  -0.919031
H  -4.052079   0.944832   0.837234
C  -1.405174   0.193343   0.039646
H  -2.747031  -1.246695  -0.764778
H  -2.737243  -1.257026   0.989548
C  -0.163873  -0.708913   0.002516
H  -1.378023   0.871830   0.878295
H  -1.479530   0.838924  -0.832333
H  -0.092647  -1.249293   0.851503
H   0.736669  -0.128848  -0.042639
H  -0.127921  -1.396249  -0.893521
