14
butane_opt
C  -3.953469   0.275821   0.019336
C  -2.691560  -0.623417   0.031321
H  -4.881500  -0.321513   0.109084
H  -3.988202   0.991829  -0.929715
H  -3.909743   0.885508   0.848253
C  -1.399808   0.166500   0.018139
H  -2.720261  -1.348077  -0.830073
H  -2.702097  -1.230933   0.913832
C  -0.167001  -0.683795   0.034996
H  -1.400880   0.853328   0.872921
H  -1.329105   0.795583  -0.885557
H  -0.140756  -1.274419   0.936127
H   0.767187  -0.077638   0.003883
H  -0.183335  -1.361018  -0.859894
