butane_opt
 OpenBabel08242015413D

 14 13  0  0  0  0  0  0  0  0999 V2000
   -3.9277    0.2687    0.0451 C   0  0  0  0  0  0  0  0  0  0  0  0
   -2.6977   -0.6127    0.0148 C   0  0  0  0  0  0  0  0  0  0  0  0
   -4.8515   -0.3257    0.0792 H   0  0  0  0  0  0  0  0  0  0  0  0
   -3.9991    0.8316   -0.8025 H   0  0  0  0  0  0  0  0  0  0  0  0
   -3.9620    0.9659    0.9470 H   0  0  0  0  0  0  0  0  0  0  0  0
   -1.4122    0.1717   -0.0408 C   0  0  0  0  0  0  0  0  0  0  0  0
   -2.7346   -1.2999   -0.8444 H   0  0  0  0  0  0  0  0  0  0  0  0
   -2.6823   -1.2605    0.9287 H   0  0  0  0  0  0  0  0  0  0  0  0
   -0.1650   -0.6863    0.0640 C   0  0  0  0  0  0  0  0  0  0  0  0
   -1.4015    0.8461    0.8097 H   0  0  0  0  0  0  0  0  0  0  0  0
   -1.4316    0.8141   -0.9651 H   0  0  0  0  0  0  0  0  0  0  0  0
   -0.2467   -1.2653    0.9646 H   0  0  0  0  0  0  0  0  0  0  0  0
    0.7704   -0.0534    0.1715 H   0  0  0  0  0  0  0  0  0  0  0  0
   -0.0586   -1.4225   -0.8420 H   0  0  0  0  0  0  0  0  0  0  0  0
  1  3  1  0  0  0  0
  1  5  1  0  0  0  0
  2  1  1  0  0  0  0
  2  8  1  0  0  0  0
  4  1  1  0  0  0  0
  6  2  1  0  0  0  0
  6  9  1  0  0  0  0
  6 10  1  0  0  0  0
  7  2  1  0  0  0  0
  9 13  1  0  0  0  0
  9 12  1  0  0  0  0
 11  6  1  0  0  0  0
 14  9  1  0  0  0  0
M  END
$$$$
