butane_opt
 OpenBabel08242015413D

 14 13  0  0  0  0  0  0  0  0999 V2000
   -3.9551    0.2704   -0.0136 C   0  0  0  0  0  0  0  0  0  0  0  0
   -2.7027   -0.6314    0.0656 C   0  0  0  0  0  0  0  0  0  0  0  0
   -4.8581   -0.2756   -0.0208 H   0  0  0  0  0  0  0  0  0  0  0  0
   -3.9241    0.9312   -0.9576 H   0  0  0  0  0  0  0  0  0  0  0  0
   -4.0338    0.9286    0.8372 H   0  0  0  0  0  0  0  0  0  0  0  0
   -1.3863    0.1852    0.0653 C   0  0  0  0  0  0  0  0  0  0  0  0
   -2.6501   -1.3146   -0.7824 H   0  0  0  0  0  0  0  0  0  0  0  0
   -2.7542   -1.2943    0.9860 H   0  0  0  0  0  0  0  0  0  0  0  0
   -0.1673   -0.6925   -0.0012 C   0  0  0  0  0  0  0  0  0  0  0  0
   -1.3632    0.9038    0.9189 H   0  0  0  0  0  0  0  0  0  0  0  0
   -1.3647    0.8127   -0.8286 H   0  0  0  0  0  0  0  0  0  0  0  0
   -0.0151   -1.3362    0.8787 H   0  0  0  0  0  0  0  0  0  0  0  0
    0.7402   -0.1049   -0.1283 H   0  0  0  0  0  0  0  0  0  0  0  0
   -0.2626   -1.2987   -0.8503 H   0  0  0  0  0  0  0  0  0  0  0  0
  1  2  1  0  0  0  0
  1  5  1  0  0  0  0
  2  8  1  0  0  0  0
  3  1  1  0  0  0  0
  4  1  1  0  0  0  0
  6  2  1  0  0  0  0
  6 10  1  0  0  0  0
  7  2  1  0  0  0  0
  9  6  1  0  0  0  0
  9 12  1  0  0  0  0
 11  6  1  0  0  0  0
 13  9  1  0  0  0  0
 14  9  1  0  0  0  0
M  END
$$$$
