14
butane_opt
C  -3.937391   0.264717   0.044262
C  -2.695845  -0.621228   0.033888
H  -4.872916  -0.336680  -0.146683
H  -3.893494   0.744529  -0.809459
H  -3.998791   1.042158   0.970636
C  -1.417879   0.192215  -0.023787
H  -2.727947  -1.317545  -0.839696
H  -2.659432  -1.232242   0.897720
C  -0.160161  -0.693041   0.054227
H  -1.362523   0.842358   0.813674
H  -1.400949   0.869821  -0.923102
H  -0.144551  -1.354075   0.969051
H   0.723516  -0.152755  -0.020121
H  -0.143884  -1.297379  -0.759428
