14
butane_opt
C  -3.932445   0.253150   0.041080
C  -2.701839  -0.598523   0.006091
H  -4.882995  -0.362327   0.151737
H  -4.028636   0.938023  -0.862774
H  -3.837838   0.879968   0.881127
C  -1.405303   0.192523  -0.011577
H  -2.774230  -1.342408  -0.887065
H  -2.670254  -1.162678   0.856370
C  -0.166252  -0.710255   0.056008
H  -1.424029   0.862303   0.834014
H  -1.431505   0.815818  -0.914584
H  -0.177472  -1.340351   0.960343
H   0.765971  -0.085791   0.060653
H  -0.089671  -1.314789  -0.744922
