butane_opt
 OpenBabel08242015413D

 14 13  0  0  0  0  0  0  0  0999 V2000
   -3.9382    0.2743   -0.0080 C   0  0  0  0  0  0  0  0  0  0  0  0
   -2.6885   -0.6164    0.0714 C   0  0  0  0  0  0  0  0  0  0  0  0
   -4.8568   -0.2884   -0.0018 H   0  0  0  0  0  0  0  0  0  0  0  0
   -3.9835    0.9329   -0.9343 H   0  0  0  0  0  0  0  0  0  0  0  0
   -3.9859    0.8971    0.8180 H   0  0  0  0  0  0  0  0  0  0  0  0
   -1.4116    0.1600    0.0339 C   0  0  0  0  0  0  0  0  0  0  0  0
   -2.7113   -1.3007   -0.7460 H   0  0  0  0  0  0  0  0  0  0  0  0
   -2.7033   -1.3245    1.0207 H   0  0  0  0  0  0  0  0  0  0  0  0
   -0.1628   -0.6795    0.0024 C   0  0  0  0  0  0  0  0  0  0  0  0
   -1.3624    0.8584    0.9067 H   0  0  0  0  0  0  0  0  0  0  0  0
   -1.4131    0.7682   -0.8481 H   0  0  0  0  0  0  0  0  0  0  0  0
   -0.2141   -1.2017    0.8314 H   0  0  0  0  0  0  0  0  0  0  0  0
    0.7727   -0.0619    0.0910 H   0  0  0  0  0  0  0  0  0  0  0  0
   -0.1552   -1.4047   -0.9139 H   0  0  0  0  0  0  0  0  0  0  0  0
  1  3  1  0  0  0  0
  1  2  1  0  0  0  0
  1  5  1  0  0  0  0
  2  8  1  0  0  0  0
  4  1  1  0  0  0  0
  6  2  1  0  0  0  0
  6 10  1  0  0  0  0
  7  2  1  0  0  0  0
  9  6  1  0  0  0  0
  9 13  1  0  0  0  0
  9 12  1  0  0  0  0
 11  6  1  0  0  0  0
 14  9  1  0  0  0  0
M  END
$$$$
