butane_opt
 OpenBabel08242015413D

 14 13  0  0  0  0  0  0  0  0999 V2000
   -3.9379    0.2445    0.0030 C   0  0  0  0  0  0  0  0  0  0  0  0
   -2.7096   -0.6045    0.0742 C   0  0  0  0  0  0  0  0  0  0  0  0
   -4.8602   -0.3341   -0.0278 H   0  0  0  0  0  0  0  0  0  0  0  0
   -3.9225    0.9125   -0.9295 H   0  0  0  0  0  0  0  0  0  0  0  0
   -4.0083    0.9287    0.8639 H   0  0  0  0  0  0  0  0  0  0  0  0
   -1.4192    0.2016    0.0198 C   0  0  0  0  0  0  0  0  0  0  0  0
   -2.7238   -1.2862   -0.7722 H   0  0  0  0  0  0  0  0  0  0  0  0
   -2.7499   -1.2039    0.9484 H   0  0  0  0  0  0  0  0  0  0  0  0
   -0.1387   -0.7039    0.0114 C   0  0  0  0  0  0  0  0  0  0  0  0
   -1.3872    0.8664    0.8484 H   0  0  0  0  0  0  0  0  0  0  0  0
   -1.3989    0.8237   -0.8583 H   0  0  0  0  0  0  0  0  0  0  0  0
   -0.1327   -1.2493    0.8791 H   0  0  0  0  0  0  0  0  0  0  0  0
    0.7387   -0.1498    0.0584 H   0  0  0  0  0  0  0  0  0  0  0  0
   -0.1028   -1.4417   -0.8811 H   0  0  0  0  0  0  0  0  0  0  0  0
  1  2  1  0  0  0  0
  1  5  1  0  0  0  0
  2  8  1  0  0  0  0
  3  1  1  0  0  0  0
  4  1  1  0  0  0  0
  6  2  1  0  0  0  0
  6 10  1  0  0  0  0
  7  2  1  0  0  0  0
  9  6  1  0  0  0  0
  9 13  1  0  0  0  0
  9 12  1  0  0  0  0
 11  6  1  0  0  0  0
 14  9  1  0  0  0  0
M  END
$$$$
