14
butane_opt
C  -3.941929   0.266309  -0.002147
C  -2.698080  -0.604512   0.069490
H  -4.842508  -0.319188  -0.099932
H  -3.887950   0.829670  -0.874347
H  -4.029637   0.987611   0.872584
C  -1.395811   0.171795   0.024258
H  -2.725479  -1.271245  -0.747097
H  -2.666545  -1.308420   1.010280
C  -0.174813  -0.689260   0.007432
H  -1.359234   0.863539   0.892089
H  -1.400181   0.777372  -0.846865
H  -0.182224  -1.274355   0.906632
H   0.760616  -0.108064  -0.010442
H  -0.161977  -1.377122  -0.857790
