butane_opt
 OpenBabel08242015413D

 14 13  0  0  0  0  0  0  0  0999 V2000
   -3.9496    0.2683   -0.0041 C   0  0  0  0  0  0  0  0  0  0  0  0
   -2.7034   -0.6195    0.0396 C   0  0  0  0  0  0  0  0  0  0  0  0
   -4.8386   -0.3092    0.0122 H   0  0  0  0  0  0  0  0  0  0  0  0
   -3.9820    0.8881   -0.8861 H   0  0  0  0  0  0  0  0  0  0  0  0
   -3.9919    0.9189    0.8541 H   0  0  0  0  0  0  0  0  0  0  0  0
   -1.3975    0.1934    0.0484 C   0  0  0  0  0  0  0  0  0  0  0  0
   -2.7053   -1.2893   -0.7858 H   0  0  0  0  0  0  0  0  0  0  0  0
   -2.7448   -1.3167    0.9725 H   0  0  0  0  0  0  0  0  0  0  0  0
   -0.1531   -0.6987    0.0191 C   0  0  0  0  0  0  0  0  0  0  0  0
   -1.3317    0.9117    0.9186 H   0  0  0  0  0  0  0  0  0  0  0  0
   -1.3864    0.7772   -0.8221 H   0  0  0  0  0  0  0  0  0  0  0  0
   -0.0844   -1.3663    0.9359 H   0  0  0  0  0  0  0  0  0  0  0  0
    0.7354   -0.1008   -0.1867 H   0  0  0  0  0  0  0  0  0  0  0  0
   -0.2434   -1.3022   -0.8071 H   0  0  0  0  0  0  0  0  0  0  0  0
  1  3  1  0  0  0  0
  1  2  1  0  0  0  0
  1  5  1  0  0  0  0
  2  6  1  0  0  0  0
  2  8  1  0  0  0  0
  4  1  1  0  0  0  0
  6 10  1  0  0  0  0
  7  2  1  0  0  0  0
  9  6  1  0  0  0  0
  9 12  1  0  0  0  0
 11  6  1  0  0  0  0
 13  9  1  0  0  0  0
 14  9  1  0  0  0  0
M  END
$$$$
