butane_opt
 OpenBabel08242015413D

 14 13  0  0  0  0  0  0  0  0999 V2000
   -3.9468    0.2585    0.0169 C   0  0  0  0  0  0  0  0  0  0  0  0
   -2.7157   -0.6120    0.0240 C   0  0  0  0  0  0  0  0  0  0  0  0
   -4.8938   -0.3500    0.1320 H   0  0  0  0  0  0  0  0  0  0  0  0
   -4.0194    0.9613   -0.9113 H   0  0  0  0  0  0  0  0  0  0  0  0
   -3.8672    0.8347    0.8427 H   0  0  0  0  0  0  0  0  0  0  0  0
   -1.4067    0.2022    0.0252 C   0  0  0  0  0  0  0  0  0  0  0  0
   -2.7691   -1.2732   -0.8117 H   0  0  0  0  0  0  0  0  0  0  0  0
   -2.7326   -1.2063    0.8979 H   0  0  0  0  0  0  0  0  0  0  0  0
   -0.1375   -0.7051    0.0300 C   0  0  0  0  0  0  0  0  0  0  0  0
   -1.3745    0.8732    0.8679 H   0  0  0  0  0  0  0  0  0  0  0  0
   -1.3944    0.8289   -0.8855 H   0  0  0  0  0  0  0  0  0  0  0  0
   -0.1225   -1.3355    0.9354 H   0  0  0  0  0  0  0  0  0  0  0  0
    0.7497   -0.1306    0.0403 H   0  0  0  0  0  0  0  0  0  0  0  0
   -0.1167   -1.4028   -0.8333 H   0  0  0  0  0  0  0  0  0  0  0  0
  1  2  1  0  0  0  0
  1  3  1  0  0  0  0
  1  5  1  0  0  0  0
  2  6  1  0  0  0  0
  2  8  1  0  0  0  0
  4  1  1  0  0  0  0
  6  9  1  0  0  0  0
  6 10  1  0  0  0  0
  7  2  1  0  0  0  0
  9 13  1  0  0  0  0
  9 12  1  0  0  0  0
 11  6  1  0  0  0  0
 14  9  1  0  0  0  0
M  END
$$$$
