butane_opt
 OpenBabel08242015413D

 14 13  0  0  0  0  0  0  0  0999 V2000
   -3.9390    0.2556    0.0481 C   0  0  0  0  0  0  0  0  0  0  0  0
   -2.7139   -0.6097    0.0091 C   0  0  0  0  0  0  0  0  0  0  0  0
   -4.8872   -0.3700    0.0757 H   0  0  0  0  0  0  0  0  0  0  0  0
   -4.0240    0.8415   -0.7896 H   0  0  0  0  0  0  0  0  0  0  0  0
   -3.9115    0.9593    0.9280 H   0  0  0  0  0  0  0  0  0  0  0  0
   -1.4092    0.2050   -0.0421 C   0  0  0  0  0  0  0  0  0  0  0  0
   -2.7939   -1.2499   -0.8176 H   0  0  0  0  0  0  0  0  0  0  0  0
   -2.6902   -1.2319    0.8970 H   0  0  0  0  0  0  0  0  0  0  0  0
   -0.1495   -0.7063    0.0712 C   0  0  0  0  0  0  0  0  0  0  0  0
   -1.3968    0.8372    0.7812 H   0  0  0  0  0  0  0  0  0  0  0  0
   -1.3252    0.8766   -0.9450 H   0  0  0  0  0  0  0  0  0  0  0  0
   -0.1409   -1.2734    0.9244 H   0  0  0  0  0  0  0  0  0  0  0  0
    0.7365   -0.1497    0.1866 H   0  0  0  0  0  0  0  0  0  0  0  0
   -0.0430   -1.4634   -0.8443 H   0  0  0  0  0  0  0  0  0  0  0  0
  1  3  1  0  0  0  0
  1  5  1  0  0  0  0
  2  1  1  0  0  0  0
  2  8  1  0  0  0  0
  4  1  1  0  0  0  0
  6  2  1  0  0  0  0
  6  9  1  0  0  0  0
  6 10  1  0  0  0  0
  7  2  1  0  0  0  0
  9 13  1  0  0  0  0
  9 12  1  0  0  0  0
 11  6  1  0  0  0  0
 14  9  1  0  0  0  0
M  END
$$$$
