butane_opt
 OpenBabel08242015413D

 14 13  0  0  0  0  0  0  0  0999 V2000
   -3.9295    0.2495    0.0041 C   0  0  0  0  0  0  0  0  0  0  0  0
   -2.6938   -0.5987    0.0660 C   0  0  0  0  0  0  0  0  0  0  0  0
   -4.8515   -0.3401    0.0308 H   0  0  0  0  0  0  0  0  0  0  0  0
   -3.9419    0.8792   -0.8832 H   0  0  0  0  0  0  0  0  0  0  0  0
   -3.9704    0.8873    0.8536 H   0  0  0  0  0  0  0  0  0  0  0  0
   -1.4188    0.1985    0.0113 C   0  0  0  0  0  0  0  0  0  0  0  0
   -2.7540   -1.2959   -0.8012 H   0  0  0  0  0  0  0  0  0  0  0  0
   -2.7349   -1.2127    0.9403 H   0  0  0  0  0  0  0  0  0  0  0  0
   -0.1539   -0.7029    0.0217 C   0  0  0  0  0  0  0  0  0  0  0  0
   -1.4249    0.8377    0.8565 H   0  0  0  0  0  0  0  0  0  0  0  0
   -1.4251    0.8201   -0.8691 H   0  0  0  0  0  0  0  0  0  0  0  0
   -0.1898   -1.2412    0.8622 H   0  0  0  0  0  0  0  0  0  0  0  0
    0.7181   -0.1298    0.0718 H   0  0  0  0  0  0  0  0  0  0  0  0
   -0.0883   -1.4377   -0.8731 H   0  0  0  0  0  0  0  0  0  0  0  0
  1  3  1  0  0  0  0
  1  2  1  0  0  0  0
  1  5  1  0  0  0  0
  2  8  1  0  0  0  0
  4  1  1  0  0  0  0
  6  9  1  0  0  0  0
  6  2  1  0  0  0  0
  6 10  1  0  0  0  0
  7  2  1  0  0  0  0
  9 13  1  0  0  0  0
  9 12  1  0  0  0  0
 11  6  1  0  0  0  0
 14  9  1  0  0  0  0
M  END
$$$$
