14
butane_opt
C  -3.930798   0.248196   0.012392
C  -2.701546  -0.595486   0.047387
H  -4.868382  -0.357105   0.109519
H  -3.947765   0.954263  -0.943079
H  -3.920264   0.880216   0.836202
C  -1.411353   0.193685   0.017654
H  -2.753903  -1.287600  -0.798873
H  -2.699004  -1.209261   0.912501
C  -0.158731  -0.709671   0.023659
H  -1.394669   0.829409   0.860475
H  -1.424356   0.856210  -0.873588
H  -0.228231  -1.217146   0.880265
H   0.764972  -0.124388   0.098783
H  -0.111318  -1.441620  -0.874642
