14
butane_opt
C  -3.935704   0.253650   0.030353
C  -2.695115  -0.593816   0.028053
H  -4.889240  -0.373615  -0.003325
H  -3.931545   0.826037  -0.841204
H  -3.917525   0.949979   0.871286
C  -1.406720   0.193957   0.011554
H  -2.766951  -1.333342  -0.866695
H  -2.704750  -1.153241   0.876576
C  -0.168943  -0.706713   0.038403
H  -1.371328   0.829182   0.832310
H  -1.418692   0.826816  -0.896407
H  -0.118985  -1.413205   0.992731
H   0.718822  -0.133652  -0.071182
H  -0.139552  -1.266711  -0.742409
