butane_opt
 OpenBabel08242015413D

 14 13  0  0  0  0  0  0  0  0999 V2000
   -3.9489    0.2770   -0.0082 C   0  0  0  0  0  0  0  0  0  0  0  0
   -2.7013   -0.6152    0.0708 C   0  0  0  0  0  0  0  0  0  0  0  0
   -4.8566   -0.3325   -0.0904 H   0  0  0  0  0  0  0  0  0  0  0  0
   -3.9271    0.8611   -0.9011 H   0  0  0  0  0  0  0  0  0  0  0  0
   -4.0386    0.9591    0.8656 H   0  0  0  0  0  0  0  0  0  0  0  0
   -1.3994    0.1717    0.0419 C   0  0  0  0  0  0  0  0  0  0  0  0
   -2.7162   -1.2770   -0.7479 H   0  0  0  0  0  0  0  0  0  0  0  0
   -2.7643   -1.3260    1.0073 H   0  0  0  0  0  0  0  0  0  0  0  0
   -0.1572   -0.6877    0.0083 C   0  0  0  0  0  0  0  0  0  0  0  0
   -1.3554    0.8266    0.8750 H   0  0  0  0  0  0  0  0  0  0  0  0
   -1.4073    0.7960   -0.8582 H   0  0  0  0  0  0  0  0  0  0  0  0
   -0.0838   -1.2435    0.8594 H   0  0  0  0  0  0  0  0  0  0  0  0
    0.7784   -0.0633   -0.0526 H   0  0  0  0  0  0  0  0  0  0  0  0
   -0.1797   -1.4095   -0.8745 H   0  0  0  0  0  0  0  0  0  0  0  0
  1  2  1  0  0  0  0
  1  5  1  0  0  0  0
  2  8  1  0  0  0  0
  3  1  1  0  0  0  0
  4  1  1  0  0  0  0
  6  2  1  0  0  0  0
  6 10  1  0  0  0  0
  7  2  1  0  0  0  0
  9  6  1  0  0  0  0
  9 12  1  0  0  0  0
 11  6  1  0  0  0  0
 13  9  1  0  0  0  0
 14  9  1  0  0  0  0
M  END
$$$$
