14
butane_opt
C  -3.950008   0.261641   0.047229
C  -2.709179  -0.608885   0.005659
H  -4.903379  -0.360976   0.186703
H  -4.056615   0.955981  -0.898691
H  -3.909290   0.883440   0.853869
C  -1.388302   0.189917  -0.011869
H  -2.743560  -1.388745  -0.913933
H  -2.713495  -1.162417   0.848390
C  -0.155457  -0.698278   0.060052
H  -1.384634   0.854476   0.846856
H  -1.389674   0.841471  -0.936710
H  -0.159496  -1.344237   0.974490
H   0.733347  -0.115913   0.037893
H  -0.056658  -1.369228  -0.775684
