14
butane_opt
C  -3.945823   0.258490  -0.003365
C  -2.702813  -0.613648   0.051761
H  -4.860565  -0.323326   0.148111
H  -4.026856   0.957177  -0.963893
H  -3.924656   0.840825   0.818414
C  -1.416511   0.192929   0.029059
H  -2.700041  -1.281587  -0.784910
H  -2.717655  -1.282315   0.962570
C  -0.148574  -0.690592   0.018073
H  -1.376679   0.903347   0.908225
H  -1.342247   0.803889  -0.837709
H  -0.081447  -1.279837   0.880389
H   0.710861  -0.127100   0.081695
H  -0.137010  -1.453849  -0.934059
