14
butane_opt
C  -3.940971   0.256751  -0.017485
C  -2.706706  -0.600501   0.088360
H  -4.833875  -0.351907  -0.104643
H  -3.871499   0.817254  -0.883321
H  -4.001806   0.975490   0.861177
C  -1.411772   0.188157   0.048479
H  -2.717576  -1.242228  -0.755930
H  -2.782564  -1.245937   0.986536
C  -0.151765  -0.699510  -0.002082
H  -1.394086   0.827223   0.877871
H  -1.422288   0.832075  -0.870550
H  -0.102961  -1.307343   0.871334
H   0.775412  -0.099815  -0.047753
H  -0.144616  -1.412817  -0.900919
