butane_opt
 OpenBabel08242015413D

 14 13  0  0  0  0  0  0  0  0999 V2000
   -3.9302    0.2759    0.0129 C   0  0  0  0  0  0  0  0  0  0  0  0
   -2.6984   -0.6290    0.0508 C   0  0  0  0  0  0  0  0  0  0  0  0
   -4.8423   -0.3327    0.0281 H   0  0  0  0  0  0  0  0  0  0  0  0
   -4.0021    0.9229   -0.9039 H   0  0  0  0  0  0  0  0  0  0  0  0
   -3.9890    0.9781    0.8603 H   0  0  0  0  0  0  0  0  0  0  0  0
   -1.4013    0.1675    0.0125 C   0  0  0  0  0  0  0  0  0  0  0  0
   -2.6783   -1.2855   -0.7889 H   0  0  0  0  0  0  0  0  0  0  0  0
   -2.6985   -1.3087    0.9703 H   0  0  0  0  0  0  0  0  0  0  0  0
   -0.1801   -0.6776    0.0238 C   0  0  0  0  0  0  0  0  0  0  0  0
   -1.3324    0.8147    0.8486 H   0  0  0  0  0  0  0  0  0  0  0  0
   -1.3986    0.8518   -0.8940 H   0  0  0  0  0  0  0  0  0  0  0  0
   -0.1702   -1.2246    0.8647 H   0  0  0  0  0  0  0  0  0  0  0  0
    0.7433   -0.0879    0.1505 H   0  0  0  0  0  0  0  0  0  0  0  0
   -0.1349   -1.4437   -0.8974 H   0  0  0  0  0  0  0  0  0  0  0  0
  1  3  1  0  0  0  0
  1  2  1  0  0  0  0
  1  5  1  0  0  0  0
  2  8  1  0  0  0  0
  4  1  1  0  0  0  0
  6  9  1  0  0  0  0
  6  2  1  0  0  0  0
  6 10  1  0  0  0  0
  7  2  1  0  0  0  0
  9 13  1  0  0  0  0
  9 12  1  0  0  0  0
 11  6  1  0  0  0  0
 14  9  1  0  0  0  0
M  END
$$$$
