butane_opt
 OpenBabel08242015413D

 14 13  0  0  0  0  0  0  0  0999 V2000
   -3.9410    0.2491    0.0107 C   0  0  0  0  0  0  0  0  0  0  0  0
   -2.6954   -0.5958    0.0415 C   0  0  0  0  0  0  0  0  0  0  0  0
   -4.8834   -0.3582    0.0916 H   0  0  0  0  0  0  0  0  0  0  0  0
   -3.9428    0.9836   -0.9369 H   0  0  0  0  0  0  0  0  0  0  0  0
   -3.8793    0.7977    0.8009 H   0  0  0  0  0  0  0  0  0  0  0  0
   -1.4157    0.1963    0.0206 C   0  0  0  0  0  0  0  0  0  0  0  0
   -2.7373   -1.2406   -0.7830 H   0  0  0  0  0  0  0  0  0  0  0  0
   -2.6765   -1.2562    0.9412 H   0  0  0  0  0  0  0  0  0  0  0  0
   -0.1601   -0.7089    0.0222 C   0  0  0  0  0  0  0  0  0  0  0  0
   -1.3659    0.9303    0.9194 H   0  0  0  0  0  0  0  0  0  0  0  0
   -1.4151    0.7723   -0.8298 H   0  0  0  0  0  0  0  0  0  0  0  0
   -0.1588   -1.2530    0.8687 H   0  0  0  0  0  0  0  0  0  0  0  0
    0.7224   -0.1349    0.0542 H   0  0  0  0  0  0  0  0  0  0  0  0
   -0.1318   -1.4065   -0.8501 H   0  0  0  0  0  0  0  0  0  0  0  0
  1  2  1  0  0  0  0
  1  3  1  0  0  0  0
  1  5  1  0  0  0  0
  2  8  1  0  0  0  0
  4  1  1  0  0  0  0
  6  9  1  0  0  0  0
  6  2  1  0  0  0  0
  6 10  1  0  0  0  0
  7  2  1  0  0  0  0
  9 13  1  0  0  0  0
  9 12  1  0  0  0  0
 11  6  1  0  0  0  0
 14  9  1  0  0  0  0
M  END
$$$$
