butane_opt
 OpenBabel08242015413D

 14 13  0  0  0  0  0  0  0  0999 V2000
   -3.9359    0.2530    0.0394 C   0  0  0  0  0  0  0  0  0  0  0  0
   -2.6962   -0.5957    0.0068 C   0  0  0  0  0  0  0  0  0  0  0  0
   -4.8371   -0.3517    0.0779 H   0  0  0  0  0  0  0  0  0  0  0  0
   -4.0014    0.8781   -0.8542 H   0  0  0  0  0  0  0  0  0  0  0  0
   -3.8570    0.9382    0.9336 H   0  0  0  0  0  0  0  0  0  0  0  0
   -1.4083    0.1861   -0.0105 C   0  0  0  0  0  0  0  0  0  0  0  0
   -2.7684   -1.3475   -0.8722 H   0  0  0  0  0  0  0  0  0  0  0  0
   -2.7373   -1.1773    0.8662 H   0  0  0  0  0  0  0  0  0  0  0  0
   -0.1650   -0.7059    0.0534 C   0  0  0  0  0  0  0  0  0  0  0  0
   -1.4286    0.9002    0.8674 H   0  0  0  0  0  0  0  0  0  0  0  0
   -1.3838    0.8197   -0.8954 H   0  0  0  0  0  0  0  0  0  0  0  0
   -0.1477   -1.4114    1.0294 H   0  0  0  0  0  0  0  0  0  0  0  0
    0.7593   -0.1209   -0.0467 H   0  0  0  0  0  0  0  0  0  0  0  0
   -0.1561   -1.2439   -0.7298 H   0  0  0  0  0  0  0  0  0  0  0  0
  1  3  1  0  0  0  0
  1  5  1  0  0  0  0
  2  1  1  0  0  0  0
  2  8  1  0  0  0  0
  4  1  1  0  0  0  0
  6  2  1  0  0  0  0
  6  9  1  0  0  0  0
  6 10  1  0  0  0  0
  7  2  1  0  0  0  0
  9 12  1  0  0  0  0
 11  6  1  0  0  0  0
 13  9  1  0  0  0  0
 14  9  1  0  0  0  0
M  END
$$$$
