14
butane_opt
C  -3.940228   0.261103   0.026841
C  -2.699168  -0.623501   0.033099
H  -4.847785  -0.323351   0.052318
H  -3.961343   0.898663  -0.871638
H  -3.970705   0.918995   0.885437
C  -1.413542   0.197754  -0.002022
H  -2.739733  -1.282775  -0.803647
H  -2.732787  -1.265268   0.947252
C  -0.147109  -0.698752   0.045037
H  -1.422111   0.815027   0.838544
H  -1.389521   0.888871  -0.938711
H  -0.184207  -1.183826   0.874199
H   0.727145  -0.129566   0.102638
H  -0.098555  -1.454968  -0.897929
