butane_opt
 OpenBabel08242015413D

 14 13  0  0  0  0  0  0  0  0999 V2000
   -3.9316    0.2719   -0.0037 C   0  0  0  0  0  0  0  0  0  0  0  0
   -2.6985   -0.6254    0.0567 C   0  0  0  0  0  0  0  0  0  0  0  0
   -4.8250   -0.2995    0.1395 H   0  0  0  0  0  0  0  0  0  0  0  0
   -4.0543    1.0285   -0.9932 H   0  0  0  0  0  0  0  0  0  0  0  0
   -3.9404    0.8294    0.7636 H   0  0  0  0  0  0  0  0  0  0  0  0
   -1.4091    0.1718    0.0451 C   0  0  0  0  0  0  0  0  0  0  0  0
   -2.6561   -1.3250   -0.8234 H   0  0  0  0  0  0  0  0  0  0  0  0
   -2.7353   -1.2711    0.9412 H   0  0  0  0  0  0  0  0  0  0  0  0
   -0.1706   -0.6823    0.0152 C   0  0  0  0  0  0  0  0  0  0  0  0
   -1.3730    0.8689    0.9179 H   0  0  0  0  0  0  0  0  0  0  0  0
   -1.3816    0.7816   -0.8415 H   0  0  0  0  0  0  0  0  0  0  0  0
   -0.0963   -1.2100    0.8526 H   0  0  0  0  0  0  0  0  0  0  0  0
    0.7652   -0.1020   -0.0005 H   0  0  0  0  0  0  0  0  0  0  0  0
   -0.2110   -1.3946   -0.8930 H   0  0  0  0  0  0  0  0  0  0  0  0
  1  2  1  0  0  0  0
  1  3  1  0  0  0  0
  1  5  1  0  0  0  0
  2  8  1  0  0  0  0
  4  1  1  0  0  0  0
  6  2  1  0  0  0  0
  6 10  1  0  0  0  0
  7  2  1  0  0  0  0
  9  6  1  0  0  0  0
  9 12  1  0  0  0  0
 11  6  1  0  0  0  0
 13  9  1  0  0  0  0
 14  9  1  0  0  0  0
M  END
$$$$
