14
butane_opt
C  -3.953088   0.271595  -0.018471
C  -2.701158  -0.617754   0.093896
H  -4.858710  -0.313894  -0.077741
H  -3.909090   0.827958  -0.869885
H  -4.082883   0.969396   0.860112
C  -1.404291   0.177487   0.031900
H  -2.668897  -1.332703  -0.768247
H  -2.733720  -1.258964   0.999457
C  -0.156665  -0.684052  -0.002365
H  -1.322282   0.843096   0.911444
H  -1.391314   0.804866  -0.859305
H  -0.121488  -1.282936   0.882916
H   0.768121  -0.110522  -0.000465
H  -0.124964  -1.382599  -0.893434
