butane_opt
 OpenBabel08242015413D

 14 13  0  0  0  0  0  0  0  0999 V2000
   -3.9479    0.2594    0.0517 C   0  0  0  0  0  0  0  0  0  0  0  0
   -2.6910   -0.6163   -0.0078 C   0  0  0  0  0  0  0  0  0  0  0  0
   -4.8404   -0.3086    0.1915 H   0  0  0  0  0  0  0  0  0  0  0  0
   -4.0346    0.9434   -0.8800 H   0  0  0  0  0  0  0  0  0  0  0  0
   -3.8648    0.8816    0.8870 H   0  0  0  0  0  0  0  0  0  0  0  0
   -1.4137    0.1859   -0.0212 C   0  0  0  0  0  0  0  0  0  0  0  0
   -2.7123   -1.3167   -0.8723 H   0  0  0  0  0  0  0  0  0  0  0  0
   -2.6935   -1.1738    0.8422 H   0  0  0  0  0  0  0  0  0  0  0  0
   -0.1612   -0.6978    0.0735 C   0  0  0  0  0  0  0  0  0  0  0  0
   -1.4427    0.8421    0.8395 H   0  0  0  0  0  0  0  0  0  0  0  0
   -1.3423    0.8239   -0.9289 H   0  0  0  0  0  0  0  0  0  0  0  0
   -0.1840   -1.2974    0.9705 H   0  0  0  0  0  0  0  0  0  0  0  0
    0.8122   -0.0668    0.0249 H   0  0  0  0  0  0  0  0  0  0  0  0
   -0.1587   -1.3644   -0.7994 H   0  0  0  0  0  0  0  0  0  0  0  0
  1  3  1  0  0  0  0
  1  5  1  0  0  0  0
  2  1  1  0  0  0  0
  2  8  1  0  0  0  0
  4  1  1  0  0  0  0
  6  2  1  0  0  0  0
  6  9  1  0  0  0  0
  6 10  1  0  0  0  0
  7  2  1  0  0  0  0
  9 12  1  0  0  0  0
 11  6  1  0  0  0  0
 13  9  1  0  0  0  0
 14  9  1  0  0  0  0
M  END
$$$$
