butane_opt
 OpenBabel08242015413D

 14 13  0  0  0  0  0  0  0  0999 V2000
   -3.9530    0.2486    0.0313 C   0  0  0  0  0  0  0  0  0  0  0  0
   -2.7096   -0.6116    0.0058 C   0  0  0  0  0  0  0  0  0  0  0  0
   -4.8301   -0.3142    0.0522 H   0  0  0  0  0  0  0  0  0  0  0  0
   -4.0203    0.8371   -0.8432 H   0  0  0  0  0  0  0  0  0  0  0  0
   -3.9038    0.9609    0.9383 H   0  0  0  0  0  0  0  0  0  0  0  0
   -1.4037    0.2080    0.0063 C   0  0  0  0  0  0  0  0  0  0  0  0
   -2.7103   -1.2832   -0.8444 H   0  0  0  0  0  0  0  0  0  0  0  0
   -2.7297   -1.2328    0.9045 H   0  0  0  0  0  0  0  0  0  0  0  0
   -0.1458   -0.7089    0.0489 C   0  0  0  0  0  0  0  0  0  0  0  0
   -1.3843    0.9035    0.8392 H   0  0  0  0  0  0  0  0  0  0  0  0
   -1.4282    0.8378   -0.8890 H   0  0  0  0  0  0  0  0  0  0  0  0
   -0.0773   -1.4107    0.9913 H   0  0  0  0  0  0  0  0  0  0  0  0
    0.7606   -0.1532   -0.0618 H   0  0  0  0  0  0  0  0  0  0  0  0
   -0.1480   -1.2488   -0.7366 H   0  0  0  0  0  0  0  0  0  0  0  0
  1  3  1  0  0  0  0
  1  5  1  0  0  0  0
  2  6  1  0  0  0  0
  2  1  1  0  0  0  0
  2  8  1  0  0  0  0
  4  1  1  0  0  0  0
  6  9  1  0  0  0  0
  6 10  1  0  0  0  0
  7  2  1  0  0  0  0
  9 12  1  0  0  0  0
 11  6  1  0  0  0  0
 13  9  1  0  0  0  0
 14  9  1  0  0  0  0
M  END
$$$$
