butane_opt
 OpenBabel08242015413D

 14 13  0  0  0  0  0  0  0  0999 V2000
   -3.9539    0.2600    0.0336 C   0  0  0  0  0  0  0  0  0  0  0  0
   -2.7066   -0.6056    0.0132 C   0  0  0  0  0  0  0  0  0  0  0  0
   -4.8936   -0.3936    0.1603 H   0  0  0  0  0  0  0  0  0  0  0  0
   -4.0032    0.9548   -0.9100 H   0  0  0  0  0  0  0  0  0  0  0  0
   -3.8750    0.8498    0.8476 H   0  0  0  0  0  0  0  0  0  0  0  0
   -1.4053    0.1957   -0.0068 C   0  0  0  0  0  0  0  0  0  0  0  0
   -2.7764   -1.2824   -0.8283 H   0  0  0  0  0  0  0  0  0  0  0  0
   -2.7154   -1.2416    0.8894 H   0  0  0  0  0  0  0  0  0  0  0  0
   -0.1474   -0.7052    0.0549 C   0  0  0  0  0  0  0  0  0  0  0  0
   -1.3893    0.9204    0.8856 H   0  0  0  0  0  0  0  0  0  0  0  0
   -1.3776    0.8227   -0.8812 H   0  0  0  0  0  0  0  0  0  0  0  0
   -0.1219   -1.3051    0.9201 H   0  0  0  0  0  0  0  0  0  0  0  0
    0.7567   -0.1183    0.0467 H   0  0  0  0  0  0  0  0  0  0  0  0
   -0.0710   -1.4196   -0.8444 H   0  0  0  0  0  0  0  0  0  0  0  0
  1  3  1  0  0  0  0
  1  5  1  0  0  0  0
  2  1  1  0  0  0  0
  2  8  1  0  0  0  0
  4  1  1  0  0  0  0
  6  2  1  0  0  0  0
  6  9  1  0  0  0  0
  6 10  1  0  0  0  0
  7  2  1  0  0  0  0
  9 12  1  0  0  0  0
 11  6  1  0  0  0  0
 13  9  1  0  0  0  0
 14  9  1  0  0  0  0
M  END
$$$$
