butane_opt
 OpenBabel08242015413D

 14 13  0  0  0  0  0  0  0  0999 V2000
   -3.9454    0.2615   -0.0068 C   0  0  0  0  0  0  0  0  0  0  0  0
   -2.6997   -0.6082    0.0605 C   0  0  0  0  0  0  0  0  0  0  0  0
   -4.9005   -0.3734    0.1081 H   0  0  0  0  0  0  0  0  0  0  0  0
   -3.9872    0.9455   -0.9293 H   0  0  0  0  0  0  0  0  0  0  0  0
   -3.8982    0.8649    0.7929 H   0  0  0  0  0  0  0  0  0  0  0  0
   -1.3955    0.1937    0.0253 C   0  0  0  0  0  0  0  0  0  0  0  0
   -2.6969   -1.2369   -0.7705 H   0  0  0  0  0  0  0  0  0  0  0  0
   -2.7397   -1.2767    1.0151 H   0  0  0  0  0  0  0  0  0  0  0  0
   -0.1662   -0.7045    0.0133 C   0  0  0  0  0  0  0  0  0  0  0  0
   -1.3745    0.8963    0.8885 H   0  0  0  0  0  0  0  0  0  0  0  0
   -1.4504    0.7746   -0.8265 H   0  0  0  0  0  0  0  0  0  0  0  0
   -0.1309   -1.2213    0.8264 H   0  0  0  0  0  0  0  0  0  0  0  0
    0.7601   -0.0940    0.1288 H   0  0  0  0  0  0  0  0  0  0  0  0
   -0.1208   -1.4671   -0.9119 H   0  0  0  0  0  0  0  0  0  0  0  0
  1  2  1  0  0  0  0
  1  3  1  0  0  0  0
  1  5  1  0  0  0  0
  2  8  1  0  0  0  0
  4  1  1  0  0  0  0
  6  2  1  0  0  0  0
  6 10  1  0  0  0  0
  7  2  1  0  0  0  0
  9  6  1  0  0  0  0
  9 13  1  0  0  0  0
  9 12  1  0  0  0  0
 11  6  1  0  0  0  0
 14  9  1  0  0  0  0
M  END
$$$$
