14
butane_opt
C  -3.925607   0.248854   0.012484
C  -2.701469  -0.596063   0.037428
H  -4.866845  -0.377195   0.142820
H  -3.969626   0.974156  -0.958114
H  -3.946231   0.847327   0.819328
C  -1.406011   0.197730   0.020264
H  -2.712778  -1.265648  -0.800553
H  -2.759908  -1.250298   0.944783
C  -0.163708  -0.704414   0.017344
H  -1.417265   0.915625   0.937679
H  -1.449035   0.783904  -0.832407
H  -0.158183  -1.311019   0.903159
H   0.740470  -0.126344   0.053735
H  -0.113823  -1.414465  -0.829575
