butane_opt
 OpenBabel08242015413D

 14 13  0  0  0  0  0  0  0  0999 V2000
   -3.9305    0.2546   -0.0001 C   0  0  0  0  0  0  0  0  0  0  0  0
   -2.7023   -0.5999    0.0719 C   0  0  0  0  0  0  0  0  0  0  0  0
   -4.8860   -0.3682    0.0246 H   0  0  0  0  0  0  0  0  0  0  0  0
   -3.9347    0.9439   -0.9655 H   0  0  0  0  0  0  0  0  0  0  0  0
   -3.9875    0.8705    0.8054 H   0  0  0  0  0  0  0  0  0  0  0  0
   -1.4058    0.1837    0.0296 C   0  0  0  0  0  0  0  0  0  0  0  0
   -2.6901   -1.2357   -0.7480 H   0  0  0  0  0  0  0  0  0  0  0  0
   -2.6982   -1.2496    0.9773 H   0  0  0  0  0  0  0  0  0  0  0  0
   -0.1714   -0.7006    0.0070 C   0  0  0  0  0  0  0  0  0  0  0  0
   -1.3281    0.8940    0.8786 H   0  0  0  0  0  0  0  0  0  0  0  0
   -1.4360    0.8270   -0.8724 H   0  0  0  0  0  0  0  0  0  0  0  0
   -0.1929   -1.1996    0.8434 H   0  0  0  0  0  0  0  0  0  0  0  0
    0.7462   -0.1134    0.1204 H   0  0  0  0  0  0  0  0  0  0  0  0
   -0.0850   -1.5091   -0.9440 H   0  0  0  0  0  0  0  0  0  0  0  0
  1  3  1  0  0  0  0
  1  2  1  0  0  0  0
  1  5  1  0  0  0  0
  2  8  1  0  0  0  0
  4  1  1  0  0  0  0
  6  2  1  0  0  0  0
  6 10  1  0  0  0  0
  7  2  1  0  0  0  0
  9  6  1  0  0  0  0
  9 13  1  0  0  0  0
  9 12  1  0  0  0  0
 11  6  1  0  0  0  0
 14  9  1  0  0  0  0
M  END
$$$$
