butane_opt
 OpenBabel08242015413D

 14 13  0  0  0  0  0  0  0  0999 V2000
   -3.9491    0.2508    0.0432 C   0  0  0  0  0  0  0  0  0  0  0  0
   -2.7034   -0.6147    0.0188 C   0  0  0  0  0  0  0  0  0  0  0  0
   -4.8477   -0.3402    0.0987 H   0  0  0  0  0  0  0  0  0  0  0  0
   -4.0144    0.8932   -0.8490 H   0  0  0  0  0  0  0  0  0  0  0  0
   -3.9172    0.9680    0.9415 H   0  0  0  0  0  0  0  0  0  0  0  0
   -1.4012    0.2064   -0.0367 C   0  0  0  0  0  0  0  0  0  0  0  0
   -2.8136   -1.3124   -0.8559 H   0  0  0  0  0  0  0  0  0  0  0  0
   -2.6781   -1.2545    0.8838 H   0  0  0  0  0  0  0  0  0  0  0  0
   -0.1485   -0.7050    0.0609 C   0  0  0  0  0  0  0  0  0  0  0  0
   -1.4311    0.8905    0.8206 H   0  0  0  0  0  0  0  0  0  0  0  0
   -1.4229    0.8675   -0.9356 H   0  0  0  0  0  0  0  0  0  0  0  0
   -0.2312   -1.2644    0.9516 H   0  0  0  0  0  0  0  0  0  0  0  0
    0.7652   -0.1346    0.1453 H   0  0  0  0  0  0  0  0  0  0  0  0
   -0.0027   -1.4352   -0.8074 H   0  0  0  0  0  0  0  0  0  0  0  0
  1  3  1  0  0  0  0
  1  5  1  0  0  0  0
  2  1  1  0  0  0  0
  2  8  1  0  0  0  0
  4  1  1  0  0  0  0
  6  2  1  0  0  0  0
  6  9  1  0  0  0  0
  6 10  1  0  0  0  0
  7  2  1  0  0  0  0
  9 13  1  0  0  0  0
  9 12  1  0  0  0  0
 11  6  1  0  0  0  0
 14  9  1  0  0  0  0
M  END
$$$$
