butane_opt
 OpenBabel08242015413D

 14 13  0  0  0  0  0  0  0  0999 V2000
   -3.9513    0.2722   -0.0005 C   0  0  0  0  0  0  0  0  0  0  0  0
   -2.7070   -0.6316    0.0505 C   0  0  0  0  0  0  0  0  0  0  0  0
   -4.8385   -0.2679    0.1617 H   0  0  0  0  0  0  0  0  0  0  0  0
   -4.0679    1.0358   -0.9933 H   0  0  0  0  0  0  0  0  0  0  0  0
   -3.9292    0.7960    0.7567 H   0  0  0  0  0  0  0  0  0  0  0  0
   -1.3959    0.1915    0.0452 C   0  0  0  0  0  0  0  0  0  0  0  0
   -2.7066   -1.3388   -0.8220 H   0  0  0  0  0  0  0  0  0  0  0  0
   -2.7470   -1.2520    0.9416 H   0  0  0  0  0  0  0  0  0  0  0  0
   -0.1541   -0.6977    0.0133 C   0  0  0  0  0  0  0  0  0  0  0  0
   -1.3852    0.8626    0.8885 H   0  0  0  0  0  0  0  0  0  0  0  0
   -1.3374    0.7885   -0.8113 H   0  0  0  0  0  0  0  0  0  0  0  0
   -0.1159   -1.2291    0.8424 H   0  0  0  0  0  0  0  0  0  0  0  0
    0.7745   -0.0700    0.0184 H   0  0  0  0  0  0  0  0  0  0  0  0
   -0.1716   -1.3995   -0.8717 H   0  0  0  0  0  0  0  0  0  0  0  0
  1  2  1  0  0  0  0
  1  3  1  0  0  0  0
  1  5  1  0  0  0  0
  2  8  1  0  0  0  0
  4  1  1  0  0  0  0
  6  2  1  0  0  0  0
  6 10  1  0  0  0  0
  7  2  1  0  0  0  0
  9 13  1  0  0  0  0
  9  6  1  0  0  0  0
  9 12  1  0  0  0  0
 11  6  1  0  0  0  0
 14  9  1  0  0  0  0
M  END
$$$$
