14
butane_opt
C  -3.949600   0.267695  -0.000013
C  -2.699643  -0.618428   0.061711
H  -4.860684  -0.343901   0.087236
H  -3.975439   0.976196  -0.987018
H  -3.953787   0.855928   0.809672
C  -1.398399   0.185110   0.036751
H  -2.743812  -1.253772  -0.769243
H  -2.744620  -1.261879   0.959476
C  -0.163164  -0.692082   0.008150
H  -1.391513   0.850229   0.850395
H  -1.354388   0.799603  -0.845324
H  -0.101838  -1.206398   0.843477
H   0.740354  -0.121121   0.118814
H  -0.110532  -1.473260  -0.926690
