14
butane_opt
C  -3.927459   0.252380   0.043943
C  -2.701748  -0.595004   0.020967
H  -4.833545  -0.357556  -0.082176
H  -3.884860   0.721824  -0.756626
H  -3.976247   1.052070   0.983914
C  -1.409327   0.189707  -0.021938
H  -2.767054  -1.297609  -0.855158
H  -2.710812  -1.226932   0.916526
C  -0.164820  -0.700763   0.059431
H  -1.470114   0.804057   0.781487
H  -1.365113   0.933394  -0.962938
H  -0.147466  -1.357472   0.982352
H   0.721632  -0.148090  -0.005458
H  -0.143968  -1.360195  -0.779136
