14
butane_opt
C  -3.947340   0.275334   0.034194
C  -2.688181  -0.618844   0.027530
H  -4.884412  -0.328263  -0.048277
H  -3.895865   0.767988  -0.792384
H  -4.026509   1.021755   0.925904
C  -1.393242   0.171977  -0.009273
H  -2.685923  -1.288375  -0.828491
H  -2.685581  -1.256972   0.940199
C  -0.174248  -0.686414   0.044406
H  -1.421609   0.840046   0.823199
H  -1.393081   0.775491  -0.902799
H  -0.161307  -1.346509   0.970444
H   0.739109  -0.071678  -0.033914
H  -0.172753  -1.291067  -0.757648
