14
butane_opt
C  -3.931329   0.257097   0.038984
C  -2.696798  -0.596423   0.008112
H  -4.882873  -0.377855   0.054043
H  -3.981938   0.807493  -0.809005
H  -3.903031   0.965699   0.926983
C  -1.417956   0.187697  -0.012770
H  -2.695306  -1.333894  -0.887643
H  -2.726463  -1.214477   0.892538
C  -0.160078  -0.695501   0.054737
H  -1.421646   0.858073   0.868744
H  -1.379657   0.820947  -0.903759
H  -0.092711  -1.424282   1.011748
H   0.720542  -0.140940  -0.056716
H  -0.179540  -1.267396  -0.706822
