butane_opt
 OpenBabel08242015413D

 14 13  0  0  0  0  0  0  0  0999 V2000
   -3.9523    0.2680   -0.0158 C   0  0  0  0  0  0  0  0  0  0  0  0
   -2.6943   -0.6188    0.0764 C   0  0  0  0  0  0  0  0  0  0  0  0
   -4.8781   -0.3040   -0.0758 H   0  0  0  0  0  0  0  0  0  0  0  0
   -3.9132    0.8154   -0.8841 H   0  0  0  0  0  0  0  0  0  0  0  0
   -4.0274    0.9970    0.8807 H   0  0  0  0  0  0  0  0  0  0  0  0
   -1.3986    0.1789    0.0312 C   0  0  0  0  0  0  0  0  0  0  0  0
   -2.7332   -1.2444   -0.7190 H   0  0  0  0  0  0  0  0  0  0  0  0
   -2.7364   -1.2903    1.0130 H   0  0  0  0  0  0  0  0  0  0  0  0
   -0.1571   -0.6956    0.0038 C   0  0  0  0  0  0  0  0  0  0  0  0
   -1.3721    0.8804    0.8917 H   0  0  0  0  0  0  0  0  0  0  0  0
   -1.4392    0.7775   -0.8242 H   0  0  0  0  0  0  0  0  0  0  0  0
   -0.0811   -1.2575    0.8746 H   0  0  0  0  0  0  0  0  0  0  0  0
    0.7815   -0.0772   -0.0152 H   0  0  0  0  0  0  0  0  0  0  0  0
   -0.1992   -1.3582   -0.8442 H   0  0  0  0  0  0  0  0  0  0  0  0
  1  2  1  0  0  0  0
  1  5  1  0  0  0  0
  2  8  1  0  0  0  0
  3  1  1  0  0  0  0
  4  1  1  0  0  0  0
  6  2  1  0  0  0  0
  6 10  1  0  0  0  0
  7  2  1  0  0  0  0
  9  6  1  0  0  0  0
  9 12  1  0  0  0  0
 11  6  1  0  0  0  0
 13  9  1  0  0  0  0
 14  9  1  0  0  0  0
M  END
$$$$
