butane_opt
 OpenBabel08242015413D

 14 13  0  0  0  0  0  0  0  0999 V2000
   -3.9392    0.2745    0.0297 C   0  0  0  0  0  0  0  0  0  0  0  0
   -2.6936   -0.6263    0.0475 C   0  0  0  0  0  0  0  0  0  0  0  0
   -4.8259   -0.2960   -0.1075 H   0  0  0  0  0  0  0  0  0  0  0  0
   -3.8763    0.7954   -0.8259 H   0  0  0  0  0  0  0  0  0  0  0  0
   -4.0560    1.0213    0.9179 H   0  0  0  0  0  0  0  0  0  0  0  0
   -1.4050    0.1711   -0.0033 C   0  0  0  0  0  0  0  0  0  0  0  0
   -2.7096   -1.3101   -0.7954 H   0  0  0  0  0  0  0  0  0  0  0  0
   -2.6864   -1.2290    0.9033 H   0  0  0  0  0  0  0  0  0  0  0  0
   -0.1854   -0.6853    0.0380 C   0  0  0  0  0  0  0  0  0  0  0  0
   -1.3436    0.8372    0.8302 H   0  0  0  0  0  0  0  0  0  0  0  0
   -1.3426    0.8312   -0.9411 H   0  0  0  0  0  0  0  0  0  0  0  0
   -0.1218   -1.3015    0.9377 H   0  0  0  0  0  0  0  0  0  0  0  0
    0.7567   -0.0983   -0.0095 H   0  0  0  0  0  0  0  0  0  0  0  0
   -0.1494   -1.3273   -0.7982 H   0  0  0  0  0  0  0  0  0  0  0  0
  1  2  1  0  0  0  0
  1  5  1  0  0  0  0
  2  8  1  0  0  0  0
  3  1  1  0  0  0  0
  4  1  1  0  0  0  0
  6  9  1  0  0  0  0
  6  2  1  0  0  0  0
  6 10  1  0  0  0  0
  7  2  1  0  0  0  0
  9 12  1  0  0  0  0
 11  6  1  0  0  0  0
 13  9  1  0  0  0  0
 14  9  1  0  0  0  0
M  END
$$$$
