14
butane_opt
C  -3.944846   0.269146  -0.004590
C  -2.696880  -0.614619   0.078905
H  -4.894907  -0.361709   0.016549
H  -3.931109   0.921691  -0.923686
H  -4.016002   0.910260   0.832551
C  -1.394321   0.174187   0.020502
H  -2.712298  -1.278195  -0.752757
H  -2.704431  -1.227205   0.950863
C  -0.168616  -0.693862   0.011583
H  -1.404635   0.854015   0.883326
H  -1.376112   0.825497  -0.864694
H  -0.169268  -1.186669   0.852994
H   0.757083  -0.086433   0.077621
H  -0.113659  -1.470546  -0.930750
