14
butane_opt
C  -3.933458   0.262296   0.000777
C  -2.708606  -0.601463   0.059455
H  -4.894141  -0.366000   0.062765
H  -3.951431   0.886964  -0.922735
H  -3.883328   0.856512   0.831342
C  -1.406208   0.187264   0.028102
H  -2.702776  -1.259760  -0.753563
H  -2.716646  -1.235183   0.963171
C  -0.157773  -0.700126   0.016154
H  -1.391201   0.827814   0.835547
H  -1.422302   0.871850  -0.896399
H  -0.182926  -1.207080   0.820578
H   0.725137  -0.152562   0.152971
H  -0.124579  -1.481155  -0.922665
