butane_opt
 OpenBabel08242015413D

 14 13  0  0  0  0  0  0  0  0999 V2000
   -3.9607    0.2781    0.0205 C   0  0  0  0  0  0  0  0  0  0  0  0
   -2.7010   -0.6284    0.0445 C   0  0  0  0  0  0  0  0  0  0  0  0
   -4.8158   -0.2847    0.0572 H   0  0  0  0  0  0  0  0  0  0  0  0
   -3.9472    0.9044   -0.8985 H   0  0  0  0  0  0  0  0  0  0  0  0
   -4.0270    0.8968    0.8443 H   0  0  0  0  0  0  0  0  0  0  0  0
   -1.3998    0.1773    0.0013 C   0  0  0  0  0  0  0  0  0  0  0  0
   -2.7272   -1.2854   -0.7775 H   0  0  0  0  0  0  0  0  0  0  0  0
   -2.7119   -1.3074    0.9584 H   0  0  0  0  0  0  0  0  0  0  0  0
   -0.1505   -0.6890    0.0265 C   0  0  0  0  0  0  0  0  0  0  0  0
   -1.3574    0.8950    0.8757 H   0  0  0  0  0  0  0  0  0  0  0  0
   -1.3639    0.7737   -0.8847 H   0  0  0  0  0  0  0  0  0  0  0  0
   -0.2211   -1.2201    0.9040 H   0  0  0  0  0  0  0  0  0  0  0  0
    0.8025   -0.0654    0.1179 H   0  0  0  0  0  0  0  0  0  0  0  0
   -0.1210   -1.4259   -0.8797 H   0  0  0  0  0  0  0  0  0  0  0  0
  1  2  1  0  0  0  0
  1  3  1  0  0  0  0
  1  5  1  0  0  0  0
  2  8  1  0  0  0  0
  4  1  1  0  0  0  0
  6  9  1  0  0  0  0
  6  2  1  0  0  0  0
  6 10  1  0  0  0  0
  7  2  1  0  0  0  0
  9 13  1  0  0  0  0
  9 12  1  0  0  0  0
 11  6  1  0  0  0  0
 14  9  1  0  0  0  0
M  END
$$$$
