butane_opt
 OpenBabel08242015413D

 14 13  0  0  0  0  0  0  0  0999 V2000
   -3.9492    0.2540    0.0003 C   0  0  0  0  0  0  0  0  0  0  0  0
   -2.7111   -0.5965    0.0750 C   0  0  0  0  0  0  0  0  0  0  0  0
   -4.8744   -0.3462   -0.1289 H   0  0  0  0  0  0  0  0  0  0  0  0
   -3.8561    0.7971   -0.8620 H   0  0  0  0  0  0  0  0  0  0  0  0
   -4.0478    0.9583    0.9004 H   0  0  0  0  0  0  0  0  0  0  0  0
   -1.3979    0.1911    0.0193 C   0  0  0  0  0  0  0  0  0  0  0  0
   -2.6857   -1.2553   -0.7321 H   0  0  0  0  0  0  0  0  0  0  0  0
   -2.7203   -1.2281    0.9574 H   0  0  0  0  0  0  0  0  0  0  0  0
   -0.1538   -0.7041    0.0156 C   0  0  0  0  0  0  0  0  0  0  0  0
   -1.3629    0.8958    0.8837 H   0  0  0  0  0  0  0  0  0  0  0  0
   -1.3964    0.8113   -0.8849 H   0  0  0  0  0  0  0  0  0  0  0  0
   -0.1226   -1.2988    0.8971 H   0  0  0  0  0  0  0  0  0  0  0  0
    0.7373   -0.1507   -0.0570 H   0  0  0  0  0  0  0  0  0  0  0  0
   -0.1434   -1.3969   -0.8552 H   0  0  0  0  0  0  0  0  0  0  0  0
  1  2  1  0  0  0  0
  1  5  1  0  0  0  0
  2  8  1  0  0  0  0
  3  1  1  0  0  0  0
  4  1  1  0  0  0  0
  6  2  1  0  0  0  0
  6 10  1  0  0  0  0
  7  2  1  0  0  0  0
  9  6  1  0  0  0  0
  9 12  1  0  0  0  0
 11  6  1  0  0  0  0
 13  9  1  0  0  0  0
 14  9  1  0  0  0  0
M  END
$$$$
