14
butane_opt
C  -3.940222   0.254337   0.034343
C  -2.714588  -0.611480   0.017756
H  -4.862812  -0.338099   0.103027
H  -4.069503   0.876246  -0.864734
H  -3.859963   0.952585   0.913713
C  -1.406451   0.212587  -0.019134
H  -2.783244  -1.297280  -0.834839
H  -2.724806  -1.285455   0.926709
C  -0.149852  -0.712867   0.052828
H  -1.398980   0.868304   0.824245
H  -1.377045   0.856091  -0.906032
H  -0.161557  -1.281684   0.935617
H   0.768582  -0.120782   0.139864
H  -0.019112  -1.412275  -0.837067
