butane_opt
 OpenBabel08242015413D

 14 13  0  0  0  0  0  0  0  0999 V2000
   -3.9374    0.2691    0.0279 C   0  0  0  0  0  0  0  0  0  0  0  0
   -2.6966   -0.6192    0.0409 C   0  0  0  0  0  0  0  0  0  0  0  0
   -4.8129   -0.2942   -0.1134 H   0  0  0  0  0  0  0  0  0  0  0  0
   -3.9280    0.7950   -0.8027 H   0  0  0  0  0  0  0  0  0  0  0  0
   -4.0126    1.0270    0.9672 H   0  0  0  0  0  0  0  0  0  0  0  0
   -1.4130    0.1713   -0.0019 C   0  0  0  0  0  0  0  0  0  0  0  0
   -2.6777   -1.3378   -0.8340 H   0  0  0  0  0  0  0  0  0  0  0  0
   -2.7096   -1.2348    0.9144 H   0  0  0  0  0  0  0  0  0  0  0  0
   -0.1625   -0.6803    0.0379 C   0  0  0  0  0  0  0  0  0  0  0  0
   -1.3966    0.7901    0.8069 H   0  0  0  0  0  0  0  0  0  0  0  0
   -1.3942    0.8334   -0.8908 H   0  0  0  0  0  0  0  0  0  0  0  0
   -0.1659   -1.3694    0.9668 H   0  0  0  0  0  0  0  0  0  0  0  0
    0.7458   -0.0743   -0.0432 H   0  0  0  0  0  0  0  0  0  0  0  0
   -0.1626   -1.2910   -0.7738 H   0  0  0  0  0  0  0  0  0  0  0  0
  1  2  1  0  0  0  0
  1  5  1  0  0  0  0
  2  8  1  0  0  0  0
  3  1  1  0  0  0  0
  4  1  1  0  0  0  0
  6  9  1  0  0  0  0
  6  2  1  0  0  0  0
  6 10  1  0  0  0  0
  7  2  1  0  0  0  0
  9 12  1  0  0  0  0
 11  6  1  0  0  0  0
 13  9  1  0  0  0  0
 14  9  1  0  0  0  0
M  END
$$$$
