butane_opt
 OpenBabel08242015413D

 14 13  0  0  0  0  0  0  0  0999 V2000
   -3.9507    0.2575   -0.0077 C   0  0  0  0  0  0  0  0  0  0  0  0
   -2.7108   -0.6054    0.0607 C   0  0  0  0  0  0  0  0  0  0  0  0
   -4.8686   -0.3656    0.0244 H   0  0  0  0  0  0  0  0  0  0  0  0
   -3.9709    0.9169   -0.9376 H   0  0  0  0  0  0  0  0  0  0  0  0
   -3.9342    0.8860    0.8065 H   0  0  0  0  0  0  0  0  0  0  0  0
   -1.4023    0.1951    0.0421 C   0  0  0  0  0  0  0  0  0  0  0  0
   -2.7260   -1.2484   -0.7972 H   0  0  0  0  0  0  0  0  0  0  0  0
   -2.7658   -1.2792    0.9898 H   0  0  0  0  0  0  0  0  0  0  0  0
   -0.1439   -0.6999    0.0130 C   0  0  0  0  0  0  0  0  0  0  0  0
   -1.3305    0.9061    0.9233 H   0  0  0  0  0  0  0  0  0  0  0  0
   -1.4115    0.8090   -0.8223 H   0  0  0  0  0  0  0  0  0  0  0  0
   -0.0489   -1.2876    0.8727 H   0  0  0  0  0  0  0  0  0  0  0  0
    0.7029   -0.1816   -0.0541 H   0  0  0  0  0  0  0  0  0  0  0  0
   -0.1680   -1.4026   -0.8710 H   0  0  0  0  0  0  0  0  0  0  0  0
  1  3  1  0  0  0  0
  1  2  1  0  0  0  0
  1  5  1  0  0  0  0
  2  8  1  0  0  0  0
  4  1  1  0  0  0  0
  6  2  1  0  0  0  0
  6 10  1  0  0  0  0
  7  2  1  0  0  0  0
  9  6  1  0  0  0  0
  9 12  1  0  0  0  0
 11  6  1  0  0  0  0
 13  9  1  0  0  0  0
 14  9  1  0  0  0  0
M  END
$$$$
