14
butane_opt
C  -3.952387   0.269825  -0.020112
C  -2.708666  -0.625857   0.069123
H  -4.848753  -0.311384  -0.005028
H  -3.961920   0.923490  -0.932591
H  -4.039025   0.930918   0.828696
C  -1.391889   0.184104   0.065215
H  -2.664712  -1.310641  -0.784126
H  -2.741790  -1.283836   0.986084
C  -0.155174  -0.687899  -0.007131
H  -1.372596   0.862858   0.953456
H  -1.346779   0.800983  -0.822282
H  -0.017278  -1.331900   0.915032
H   0.704220  -0.138937  -0.122700
H  -0.233642  -1.294862  -0.860269
