14
butane_opt
C  -3.957390   0.270649   0.044025
C  -2.696013  -0.634814   0.034109
H  -4.835809  -0.253038  -0.105309
H  -3.917155   0.778018  -0.789421
H  -4.092362   1.020546   0.950981
C  -1.396177   0.187445  -0.020060
H  -2.737892  -1.326635  -0.846178
H  -2.700787  -1.240458   0.892545
C  -0.152547  -0.686371   0.051051
H  -1.396441   0.823660   0.788104
H  -1.365429   0.860005  -0.933389
H  -0.159059  -1.355941   0.974845
H   0.763007  -0.097740   0.027428
H  -0.157838  -1.325052  -0.811060
