butane_opt
 OpenBabel08242015413D

 14 13  0  0  0  0  0  0  0  0999 V2000
   -3.9516    0.2702    0.0340 C   0  0  0  0  0  0  0  0  0  0  0  0
   -2.7117   -0.6233    0.0127 C   0  0  0  0  0  0  0  0  0  0  0  0
   -4.8439   -0.3097    0.1501 H   0  0  0  0  0  0  0  0  0  0  0  0
   -4.0599    0.9684   -0.9053 H   0  0  0  0  0  0  0  0  0  0  0  0
   -3.9365    0.9330    0.8821 H   0  0  0  0  0  0  0  0  0  0  0  0
   -1.3937    0.1709   -0.0036 C   0  0  0  0  0  0  0  0  0  0  0  0
   -2.7278   -1.3443   -0.8594 H   0  0  0  0  0  0  0  0  0  0  0  0
   -2.6944   -1.2138    0.9021 H   0  0  0  0  0  0  0  0  0  0  0  0
   -0.1572   -0.6878    0.0511 C   0  0  0  0  0  0  0  0  0  0  0  0
   -1.4118    0.8411    0.8555 H   0  0  0  0  0  0  0  0  0  0  0  0
   -1.3331    0.8236   -0.9228 H   0  0  0  0  0  0  0  0  0  0  0  0
   -0.1044   -1.2854    0.9437 H   0  0  0  0  0  0  0  0  0  0  0  0
    0.8106   -0.0647    0.0566 H   0  0  0  0  0  0  0  0  0  0  0  0
   -0.1587   -1.3684   -0.7989 H   0  0  0  0  0  0  0  0  0  0  0  0
  1  3  1  0  0  0  0
  1  5  1  0  0  0  0
  2  1  1  0  0  0  0
  2  8  1  0  0  0  0
  4  1  1  0  0  0  0
  6  2  1  0  0  0  0
  6  9  1  0  0  0  0
  6 10  1  0  0  0  0
  7  2  1  0  0  0  0
  9 13  1  0  0  0  0
  9 12  1  0  0  0  0
 11  6  1  0  0  0  0
 14  9  1  0  0  0  0
M  END
$$$$
