14
butane_opt
C  -3.936907   0.246100   0.010235
C  -2.694042  -0.593587   0.048814
H  -4.868585  -0.356405   0.079522
H  -3.938580   0.892314  -0.930407
H  -3.912468   0.892767   0.852059
C  -1.416967   0.188667   0.018353
H  -2.746535  -1.239300  -0.786064
H  -2.729796  -1.233454   0.978079
C  -0.156684  -0.703540   0.024647
H  -1.429934   0.844566   0.860022
H  -1.432526   0.901228  -0.933788
H  -0.163467  -1.213722   0.837137
H   0.762443  -0.109116   0.149500
H  -0.106153  -1.509439  -0.905174
