14
butane_opt
C  -3.937150   0.263583   0.006088
C  -2.708615  -0.603348   0.040633
H  -4.867164  -0.346493   0.139369
H  -3.986232   0.948675  -0.947963
H  -3.895726   0.818932   0.805614
C  -1.402432   0.187735   0.023287
H  -2.732255  -1.285180  -0.789055
H  -2.734196  -1.244526   0.945395
C  -0.161999  -0.702122   0.024267
H  -1.341154   0.903067   0.904445
H  -1.460866   0.749938  -0.814404
H  -0.140068  -1.270971   0.890543
H   0.729946  -0.115338   0.023047
H  -0.076826  -1.376787  -0.860828
