butane_opt
 OpenBabel08242015413D

 14 13  0  0  0  0  0  0  0  0999 V2000
   -3.9441    0.2571    0.0300 C   0  0  0  0  0  0  0  0  0  0  0  0
   -2.7112   -0.6177    0.0188 C   0  0  0  0  0  0  0  0  0  0  0  0
   -4.8906   -0.3536    0.0008 H   0  0  0  0  0  0  0  0  0  0  0  0
   -3.9791    0.8122   -0.8192 H   0  0  0  0  0  0  0  0  0  0  0  0
   -3.9543    1.0231    0.9907 H   0  0  0  0  0  0  0  0  0  0  0  0
   -1.4053    0.2067   -0.0048 C   0  0  0  0  0  0  0  0  0  0  0  0
   -2.6855   -1.3293   -0.8685 H   0  0  0  0  0  0  0  0  0  0  0  0
   -2.7392   -1.2327    0.8874 H   0  0  0  0  0  0  0  0  0  0  0  0
   -0.1544   -0.7076    0.0503 C   0  0  0  0  0  0  0  0  0  0  0  0
   -1.3674    0.8947    0.8452 H   0  0  0  0  0  0  0  0  0  0  0  0
   -1.3784    0.8631   -0.9035 H   0  0  0  0  0  0  0  0  0  0  0  0
   -0.0347   -1.4376    1.0211 H   0  0  0  0  0  0  0  0  0  0  0  0
    0.7339   -0.1256   -0.0846 H   0  0  0  0  0  0  0  0  0  0  0  0
   -0.1407   -1.2547   -0.7331 H   0  0  0  0  0  0  0  0  0  0  0  0
  1  5  1  0  0  0  0
  2  1  1  0  0  0  0
  2  8  1  0  0  0  0
  3  1  1  0  0  0  0
  4  1  1  0  0  0  0
  6  2  1  0  0  0  0
  6  9  1  0  0  0  0
  6 10  1  0  0  0  0
  7  2  1  0  0  0  0
  9 12  1  0  0  0  0
 11  6  1  0  0  0  0
 13  9  1  0  0  0  0
 14  9  1  0  0  0  0
M  END
$$$$
