14
butane_opt
C  -3.953806   0.255085   0.045432
C  -2.705317  -0.598525   0.009499
H  -4.873354  -0.360300  -0.025038
H  -3.946717   0.811623  -0.796338
H  -3.937440   0.973600   0.956354
C  -1.405495   0.189852  -0.021410
H  -2.749230  -1.324367  -0.874858
H  -2.710208  -1.236374   0.914580
C  -0.147309  -0.696056   0.061576
H  -1.437933   0.909309   0.823548
H  -1.380123   0.800123  -0.897035
H  -0.073652  -1.405267   1.016500
H   0.735582  -0.164711  -0.078577
H  -0.106466  -1.280144  -0.731526
