14
butane_opt
C  -3.932463   0.268276   0.002434
C  -2.704987  -0.621091   0.053931
H  -4.807069  -0.288791   0.035407
H  -3.971122   0.898282  -0.897177
H  -3.929620   0.953867   0.883599
C  -1.406468   0.171413   0.018724
H  -2.706105  -1.232401  -0.753141
H  -2.685234  -1.297246   0.976060
C  -0.171710  -0.686573   0.021071
H  -1.369570   0.846167   0.836760
H  -1.403565   0.791702  -0.871304
H  -0.219876  -1.232322   0.864700
H   0.749588  -0.048138   0.100696
H  -0.101329  -1.444335  -0.901948
