14
butane_opt
C  -3.929776   0.253378   0.042167
C  -2.699184  -0.595353   0.023224
H  -4.856466  -0.365243  -0.053110
H  -3.919316   0.773921  -0.784314
H  -3.958048   1.014942   0.987951
C  -1.425622   0.190283  -0.037863
H  -2.769094  -1.264438  -0.818469
H  -2.675726  -1.261350   0.918521
C  -0.158471  -0.702943   0.060958
H  -1.420476   0.849857   0.808473
H  -1.404375   0.806114  -0.922188
H  -0.134288  -1.330284   0.954359
H   0.773006  -0.073123   0.079235
H  -0.104432  -1.363465  -0.783035
