butane_opt
 OpenBabel08242015413D

 14 13  0  0  0  0  0  0  0  0999 V2000
   -3.9282    0.2665    0.0387 C   0  0  0  0  0  0  0  0  0  0  0  0
   -2.7030   -0.6277    0.0339 C   0  0  0  0  0  0  0  0  0  0  0  0
   -4.8270   -0.3099   -0.1263 H   0  0  0  0  0  0  0  0  0  0  0  0
   -3.9572    0.7470   -0.7787 H   0  0  0  0  0  0  0  0  0  0  0  0
   -3.9869    1.0871    0.9748 H   0  0  0  0  0  0  0  0  0  0  0  0
   -1.4132    0.1840   -0.0246 C   0  0  0  0  0  0  0  0  0  0  0  0
   -2.7045   -1.3111   -0.8116 H   0  0  0  0  0  0  0  0  0  0  0  0
   -2.6652   -1.2306    0.9104 H   0  0  0  0  0  0  0  0  0  0  0  0
   -0.1657   -0.6909    0.0481 C   0  0  0  0  0  0  0  0  0  0  0  0
   -1.4269    0.8732    0.8310 H   0  0  0  0  0  0  0  0  0  0  0  0
   -1.3844    0.8228   -0.9341 H   0  0  0  0  0  0  0  0  0  0  0  0
   -0.1833   -1.3737    0.9957 H   0  0  0  0  0  0  0  0  0  0  0  0
    0.7701   -0.1023   -0.0095 H   0  0  0  0  0  0  0  0  0  0  0  0
   -0.1375   -1.2593   -0.7494 H   0  0  0  0  0  0  0  0  0  0  0  0
  1  5  1  0  0  0  0
  2  1  1  0  0  0  0
  2  8  1  0  0  0  0
  3  1  1  0  0  0  0
  4  1  1  0  0  0  0
  6  2  1  0  0  0  0
  6  9  1  0  0  0  0
  6 10  1  0  0  0  0
  7  2  1  0  0  0  0
  9 12  1  0  0  0  0
 11  6  1  0  0  0  0
 13  9  1  0  0  0  0
 14  9  1  0  0  0  0
M  END
$$$$
