butane_opt
 OpenBabel08242015413D

 14 13  0  0  0  0  0  0  0  0999 V2000
   -3.9335    0.2754    0.0563 C   0  0  0  0  0  0  0  0  0  0  0  0
   -2.6939   -0.6363    0.0034 C   0  0  0  0  0  0  0  0  0  0  0  0
   -4.8230   -0.2959    0.0946 H   0  0  0  0  0  0  0  0  0  0  0  0
   -4.0235    0.9101   -0.8445 H   0  0  0  0  0  0  0  0  0  0  0  0
   -3.9323    0.9646    0.9292 H   0  0  0  0  0  0  0  0  0  0  0  0
   -1.4103    0.1739   -0.0377 C   0  0  0  0  0  0  0  0  0  0  0  0
   -2.7353   -1.3210   -0.8520 H   0  0  0  0  0  0  0  0  0  0  0  0
   -2.6749   -1.2310    0.8873 H   0  0  0  0  0  0  0  0  0  0  0  0
   -0.1676   -0.6848    0.0628 C   0  0  0  0  0  0  0  0  0  0  0  0
   -1.3911    0.8078    0.8016 H   0  0  0  0  0  0  0  0  0  0  0  0
   -1.3872    0.8181   -0.9496 H   0  0  0  0  0  0  0  0  0  0  0  0
   -0.2512   -1.2344    0.9709 H   0  0  0  0  0  0  0  0  0  0  0  0
    0.7556   -0.0696    0.1852 H   0  0  0  0  0  0  0  0  0  0  0  0
   -0.1014   -1.3556   -0.8013 H   0  0  0  0  0  0  0  0  0  0  0  0
  1  3  1  0  0  0  0
  1  5  1  0  0  0  0
  2  1  1  0  0  0  0
  2  8  1  0  0  0  0
  4  1  1  0  0  0  0
  6  2  1  0  0  0  0
  6  9  1  0  0  0  0
  6 10  1  0  0  0  0
  7  2  1  0  0  0  0
  9 13  1  0  0  0  0
  9 12  1  0  0  0  0
 11  6  1  0  0  0  0
 14  9  1  0  0  0  0
M  END
$$$$
