14
butane_opt
C  -3.931491   0.257097   0.028780
C  -2.694987  -0.608762   0.042116
H  -4.901521  -0.404565  -0.087724
H  -3.889938   0.757860  -0.793600
H  -3.996027   1.015757   0.926639
C  -1.421292   0.202009  -0.015653
H  -2.755092  -1.265709  -0.804699
H  -2.674057  -1.210051   0.905715
C  -0.161761  -0.702077   0.040925
H  -1.394034   0.885937   0.830749
H  -1.396684   0.831098  -0.883556
H  -0.102906  -1.389652   0.983127
H   0.740657  -0.137503   0.001385
H  -0.131349  -1.349451  -0.778187
