butane_opt
 OpenBabel08242015413D

 14 13  0  0  0  0  0  0  0  0999 V2000
   -3.9350    0.2678    0.0424 C   0  0  0  0  0  0  0  0  0  0  0  0
   -2.6960   -0.6226    0.0089 C   0  0  0  0  0  0  0  0  0  0  0  0
   -4.8149   -0.3070    0.0043 H   0  0  0  0  0  0  0  0  0  0  0  0
   -3.9717    0.8523   -0.8502 H   0  0  0  0  0  0  0  0  0  0  0  0
   -3.9193    1.0020    0.9383 H   0  0  0  0  0  0  0  0  0  0  0  0
   -1.4119    0.1767   -0.0082 C   0  0  0  0  0  0  0  0  0  0  0  0
   -2.7478   -1.3145   -0.8321 H   0  0  0  0  0  0  0  0  0  0  0  0
   -2.6955   -1.2062    0.8549 H   0  0  0  0  0  0  0  0  0  0  0  0
   -0.1714   -0.6872    0.0642 C   0  0  0  0  0  0  0  0  0  0  0  0
   -1.3883    0.8218    0.8223 H   0  0  0  0  0  0  0  0  0  0  0  0
   -1.3694    0.8177   -0.9146 H   0  0  0  0  0  0  0  0  0  0  0  0
   -0.1038   -1.3700    0.9861 H   0  0  0  0  0  0  0  0  0  0  0  0
    0.7445   -0.0717   -0.0914 H   0  0  0  0  0  0  0  0  0  0  0  0
   -0.1968   -1.3032   -0.7588 H   0  0  0  0  0  0  0  0  0  0  0  0
  1  5  1  0  0  0  0
  2  1  1  0  0  0  0
  2  8  1  0  0  0  0
  3  1  1  0  0  0  0
  4  1  1  0  0  0  0
  6  2  1  0  0  0  0
  6  9  1  0  0  0  0
  6 10  1  0  0  0  0
  7  2  1  0  0  0  0
  9 12  1  0  0  0  0
 11  6  1  0  0  0  0
 13  9  1  0  0  0  0
 14  9  1  0  0  0  0
M  END
$$$$
