butane_opt
 OpenBabel08242015413D

 14 13  0  0  0  0  0  0  0  0999 V2000
   -3.9417    0.2627    0.0402 C   0  0  0  0  0  0  0  0  0  0  0  0
   -2.7140   -0.6071   -0.0059 C   0  0  0  0  0  0  0  0  0  0  0  0
   -4.8832   -0.3526    0.0512 H   0  0  0  0  0  0  0  0  0  0  0  0
   -4.0089    0.8114   -0.8021 H   0  0  0  0  0  0  0  0  0  0  0  0
   -3.9526    0.9761    0.9372 H   0  0  0  0  0  0  0  0  0  0  0  0
   -1.4023    0.1861   -0.0035 C   0  0  0  0  0  0  0  0  0  0  0  0
   -2.7831   -1.2682   -0.8661 H   0  0  0  0  0  0  0  0  0  0  0  0
   -2.7273   -1.2290    0.8688 H   0  0  0  0  0  0  0  0  0  0  0  0
   -0.1398   -0.7025    0.0680 C   0  0  0  0  0  0  0  0  0  0  0  0
   -1.4130    0.8820    0.8337 H   0  0  0  0  0  0  0  0  0  0  0  0
   -1.3890    0.8032   -0.8836 H   0  0  0  0  0  0  0  0  0  0  0  0
   -0.0494   -1.4293    1.0065 H   0  0  0  0  0  0  0  0  0  0  0  0
    0.7371   -0.1068   -0.1640 H   0  0  0  0  0  0  0  0  0  0  0  0
   -0.1745   -1.2329   -0.7108 H   0  0  0  0  0  0  0  0  0  0  0  0
  1  3  1  0  0  0  0
  1  5  1  0  0  0  0
  2  6  1  0  0  0  0
  2  1  1  0  0  0  0
  2  8  1  0  0  0  0
  4  1  1  0  0  0  0
  6  9  1  0  0  0  0
  6 10  1  0  0  0  0
  7  2  1  0  0  0  0
  9 12  1  0  0  0  0
 11  6  1  0  0  0  0
 13  9  1  0  0  0  0
 14  9  1  0  0  0  0
M  END
$$$$
