14
butane_opt
C  -3.947745   0.277781   0.049332
C  -2.701720  -0.634193  -0.004585
H  -4.832279  -0.279080   0.146323
H  -4.137039   0.862913  -0.831554
H  -3.899565   0.938590   0.910909
C  -1.396961   0.179183  -0.027843
H  -2.728671  -1.361464  -0.874617
H  -2.696540  -1.264885   0.882719
C  -0.154866  -0.683603   0.066872
H  -1.434994   0.869399   0.823712
H  -1.365402   0.823583  -0.926129
H  -0.179577  -1.329959   1.002929
H   0.753705  -0.069894   0.077941
H  -0.094938  -1.324014  -0.777516
