14
butane_opt
C  -3.935170   0.260555   0.004399
C  -2.697971  -0.599309   0.040394
H  -4.831464  -0.339619   0.183780
H  -3.963693   0.986100  -0.964560
H  -3.944837   0.778529   0.756793
C  -1.405894   0.184350   0.043808
H  -2.719238  -1.283072  -0.822120
H  -2.777748  -1.239877   0.927465
C  -0.160771  -0.699514   0.017912
H  -1.407842   0.862259   0.910477
H  -1.408464   0.802249  -0.850041
H  -0.115663  -1.254440   0.876635
H   0.749216  -0.099872  -0.000268
H  -0.206526  -1.429914  -0.868793
