14
butane_opt
C  -3.943851   0.253596   0.024986
C  -2.712475  -0.616586   0.029498
H  -4.842238  -0.332790  -0.032595
H  -3.899050   0.788004  -0.816885
H  -4.026762   0.990783   0.944441
C  -1.417633   0.209922  -0.002562
H  -2.768400  -1.251703  -0.795429
H  -2.699668  -1.247033   0.922045
C  -0.134266  -0.706307   0.040481
H  -1.361326   0.908184   0.872349
H  -1.409098   0.814817  -0.909587
H  -0.105869  -1.378662   0.974426
H   0.714287  -0.147232  -0.036634
H  -0.120867  -1.311409  -0.774794
