butane_opt
 OpenBabel08242015413D

 14 13  0  0  0  0  0  0  0  0999 V2000
   -3.9509    0.2596    0.0308 C   0  0  0  0  0  0  0  0  0  0  0  0
   -2.7098   -0.6076    0.0177 C   0  0  0  0  0  0  0  0  0  0  0  0
   -4.8230   -0.3038    0.1258 H   0  0  0  0  0  0  0  0  0  0  0  0
   -4.0143    0.8329   -0.8360 H   0  0  0  0  0  0  0  0  0  0  0  0
   -3.8874    0.9171    0.9292 H   0  0  0  0  0  0  0  0  0  0  0  0
   -1.4061    0.1952   -0.0199 C   0  0  0  0  0  0  0  0  0  0  0  0
   -2.7344   -1.3060   -0.8304 H   0  0  0  0  0  0  0  0  0  0  0  0
   -2.7337   -1.2447    0.9419 H   0  0  0  0  0  0  0  0  0  0  0  0
   -0.1480   -0.7073    0.0537 C   0  0  0  0  0  0  0  0  0  0  0  0
   -1.4176    0.8775    0.8220 H   0  0  0  0  0  0  0  0  0  0  0  0
   -1.3454    0.8581   -0.9276 H   0  0  0  0  0  0  0  0  0  0  0  0
   -0.1880   -1.2822    0.9281 H   0  0  0  0  0  0  0  0  0  0  0  0
    0.7781   -0.0889    0.1258 H   0  0  0  0  0  0  0  0  0  0  0  0
   -0.0825   -1.4080   -0.8299 H   0  0  0  0  0  0  0  0  0  0  0  0
  1  3  1  0  0  0  0
  1  5  1  0  0  0  0
  2  1  1  0  0  0  0
  2  8  1  0  0  0  0
  4  1  1  0  0  0  0
  6  2  1  0  0  0  0
  6  9  1  0  0  0  0
  6 10  1  0  0  0  0
  7  2  1  0  0  0  0
  9 13  1  0  0  0  0
  9 12  1  0  0  0  0
 11  6  1  0  0  0  0
 14  9  1  0  0  0  0
M  END
$$$$
