14
butane_opt
C  -3.942759   0.255166   0.035279
C  -2.691426  -0.607369   0.014367
H  -4.836796  -0.323056  -0.010118
H  -3.946802   0.734718  -0.776318
H  -3.938210   1.054894   0.981065
C  -1.414933   0.184285  -0.020074
H  -2.755575  -1.258047  -0.809817
H  -2.704205  -1.225734   0.911578
C  -0.157970  -0.697880   0.060076
H  -1.440334   0.859837   0.831594
H  -1.377830   0.832681  -0.944328
H  -0.124197  -1.383311   0.979958
H   0.734245  -0.084865  -0.021208
H  -0.151974  -1.291275  -0.759395
