butane_opt
 OpenBabel08242015413D

 14 13  0  0  0  0  0  0  0  0999 V2000
   -3.9340    0.2712    0.0319 C   0  0  0  0  0  0  0  0  0  0  0  0
   -2.6992   -0.6339    0.0364 C   0  0  0  0  0  0  0  0  0  0  0  0
   -4.8099   -0.3057   -0.0671 H   0  0  0  0  0  0  0  0  0  0  0  0
   -3.9173    0.8274   -0.8163 H   0  0  0  0  0  0  0  0  0  0  0  0
   -3.9922    1.0461    0.9504 H   0  0  0  0  0  0  0  0  0  0  0  0
   -1.4042    0.1797   -0.0096 C   0  0  0  0  0  0  0  0  0  0  0  0
   -2.7168   -1.3211   -0.8010 H   0  0  0  0  0  0  0  0  0  0  0  0
   -2.7282   -1.1960    0.8978 H   0  0  0  0  0  0  0  0  0  0  0  0
   -0.1696   -0.6872    0.0424 C   0  0  0  0  0  0  0  0  0  0  0  0
   -1.4008    0.8251    0.8311 H   0  0  0  0  0  0  0  0  0  0  0  0
   -1.4162    0.8287   -0.9270 H   0  0  0  0  0  0  0  0  0  0  0  0
   -0.1993   -1.3469    0.9788 H   0  0  0  0  0  0  0  0  0  0  0  0
    0.7457   -0.0680   -0.0158 H   0  0  0  0  0  0  0  0  0  0  0  0
   -0.1153   -1.3168   -0.7943 H   0  0  0  0  0  0  0  0  0  0  0  0
  1  2  1  0  0  0  0
  1  5  1  0  0  0  0
  2  8  1  0  0  0  0
  3  1  1  0  0  0  0
  4  1  1  0  0  0  0
  6  2  1  0  0  0  0
  6  9  1  0  0  0  0
  6 10  1  0  0  0  0
  7  2  1  0  0  0  0
  9 12  1  0  0  0  0
 11  6  1  0  0  0  0
 13  9  1  0  0  0  0
 14  9  1  0  0  0  0
M  END
$$$$
