14
butane_opt
C  -3.949598   0.255570   0.033877
C  -2.706422  -0.613669   0.004834
H  -4.866262  -0.336018   0.180875
H  -4.018929   0.920519  -0.867926
H  -3.888321   0.839954   0.833624
C  -1.415345   0.208035  -0.004213
H  -2.730345  -1.283632  -0.840832
H  -2.727179  -1.255629   0.912227
C  -0.143008  -0.700414   0.051745
H  -1.411539   0.909341   0.865074
H  -1.352667   0.825318  -0.859607
H  -0.092048  -1.322518   0.958289
H   0.731846  -0.157185   0.037045
H  -0.094876  -1.412172  -0.823899
