butane_opt
 OpenBabel08242015413D

 14 13  0  0  0  0  0  0  0  0999 V2000
   -3.9492    0.2591   -0.0201 C   0  0  0  0  0  0  0  0  0  0  0  0
   -2.6939   -0.6087    0.0659 C   0  0  0  0  0  0  0  0  0  0  0  0
   -4.8000   -0.3007    0.0500 H   0  0  0  0  0  0  0  0  0  0  0  0
   -3.9795    0.8959   -0.9250 H   0  0  0  0  0  0  0  0  0  0  0  0
   -3.9470    0.8847    0.8083 H   0  0  0  0  0  0  0  0  0  0  0  0
   -1.4100    0.1823    0.0524 C   0  0  0  0  0  0  0  0  0  0  0  0
   -2.6589   -1.2774   -0.7487 H   0  0  0  0  0  0  0  0  0  0  0  0
   -2.7610   -1.2399    0.9730 H   0  0  0  0  0  0  0  0  0  0  0  0
   -0.1613   -0.6952   -0.0026 C   0  0  0  0  0  0  0  0  0  0  0  0
   -1.3789    0.9155    0.9452 H   0  0  0  0  0  0  0  0  0  0  0  0
   -1.4126    0.7436   -0.7902 H   0  0  0  0  0  0  0  0  0  0  0  0
   -0.0724   -1.3495    0.9143 H   0  0  0  0  0  0  0  0  0  0  0  0
    0.7755   -0.0800   -0.0783 H   0  0  0  0  0  0  0  0  0  0  0  0
   -0.2227   -1.3041   -0.8520 H   0  0  0  0  0  0  0  0  0  0  0  0
  1  3  1  0  0  0  0
  1  2  1  0  0  0  0
  1  5  1  0  0  0  0
  2  8  1  0  0  0  0
  4  1  1  0  0  0  0
  6  2  1  0  0  0  0
  6 10  1  0  0  0  0
  7  2  1  0  0  0  0
  9  6  1  0  0  0  0
  9 12  1  0  0  0  0
 11  6  1  0  0  0  0
 13  9  1  0  0  0  0
 14  9  1  0  0  0  0
M  END
$$$$
