14
butane_opt
C  -3.949350   0.249903   0.013361
C  -2.710605  -0.598407   0.052786
H  -4.886474  -0.337945   0.019366
H  -3.962855   0.917734  -0.919503
H  -3.942548   0.867310   0.846976
C  -1.406764   0.191527   0.017819
H  -2.674564  -1.266391  -0.804469
H  -2.723108  -1.254913   0.980099
C  -0.149328  -0.702672   0.026355
H  -1.408328   0.837472   0.859159
H  -1.386114   0.874463  -0.903791
H  -0.094882  -1.204593   0.824610
H   0.735215  -0.136069   0.104728
H  -0.081854  -1.462035  -0.908621
