butane_opt
 OpenBabel08242015413D

 14 13  0  0  0  0  0  0  0  0999 V2000
   -3.9565    0.2570    0.0254 C   0  0  0  0  0  0  0  0  0  0  0  0
   -2.7040   -0.6010    0.0161 C   0  0  0  0  0  0  0  0  0  0  0  0
   -4.8941   -0.3591    0.0155 H   0  0  0  0  0  0  0  0  0  0  0  0
   -3.9632    0.8277   -0.8455 H   0  0  0  0  0  0  0  0  0  0  0  0
   -3.9009    0.9762    0.9285 H   0  0  0  0  0  0  0  0  0  0  0  0
   -1.4007    0.1944    0.0061 C   0  0  0  0  0  0  0  0  0  0  0  0
   -2.7593   -1.2875   -0.8306 H   0  0  0  0  0  0  0  0  0  0  0  0
   -2.7266   -1.2351    0.9011 H   0  0  0  0  0  0  0  0  0  0  0  0
   -0.1477   -0.7008    0.0444 C   0  0  0  0  0  0  0  0  0  0  0  0
   -1.4380    0.8670    0.8750 H   0  0  0  0  0  0  0  0  0  0  0  0
   -1.3487    0.7773   -0.8377 H   0  0  0  0  0  0  0  0  0  0  0  0
   -0.0354   -1.4384    1.0190 H   0  0  0  0  0  0  0  0  0  0  0  0
    0.7185   -0.1258   -0.1422 H   0  0  0  0  0  0  0  0  0  0  0  0
   -0.1698   -1.2659   -0.7421 H   0  0  0  0  0  0  0  0  0  0  0  0
  1  5  1  0  0  0  0
  2  1  1  0  0  0  0
  2  8  1  0  0  0  0
  3  1  1  0  0  0  0
  4  1  1  0  0  0  0
  6  2  1  0  0  0  0
  6  9  1  0  0  0  0
  6 10  1  0  0  0  0
  7  2  1  0  0  0  0
  9 12  1  0  0  0  0
 11  6  1  0  0  0  0
 13  9  1  0  0  0  0
 14  9  1  0  0  0  0
M  END
$$$$
