butane_opt
 OpenBabel08242015413D

 14 13  0  0  0  0  0  0  0  0999 V2000
   -3.9482    0.2713    0.0313 C   0  0  0  0  0  0  0  0  0  0  0  0
   -2.6937   -0.6217    0.0317 C   0  0  0  0  0  0  0  0  0  0  0  0
   -4.8499   -0.3026   -0.0571 H   0  0  0  0  0  0  0  0  0  0  0  0
   -3.9621    0.7911   -0.8093 H   0  0  0  0  0  0  0  0  0  0  0  0
   -3.9745    0.9928    0.9155 H   0  0  0  0  0  0  0  0  0  0  0  0
   -1.4033    0.1769   -0.0103 C   0  0  0  0  0  0  0  0  0  0  0  0
   -2.6561   -1.2730   -0.7969 H   0  0  0  0  0  0  0  0  0  0  0  0
   -2.6720   -1.2679    0.9424 H   0  0  0  0  0  0  0  0  0  0  0  0
   -0.1720   -0.6910    0.0470 C   0  0  0  0  0  0  0  0  0  0  0  0
   -1.4185    0.8528    0.8239 H   0  0  0  0  0  0  0  0  0  0  0  0
   -1.3662    0.7933   -0.9084 H   0  0  0  0  0  0  0  0  0  0  0  0
   -0.1325   -1.2945    0.9308 H   0  0  0  0  0  0  0  0  0  0  0  0
    0.7800   -0.0425   -0.0011 H   0  0  0  0  0  0  0  0  0  0  0  0
   -0.1703   -1.3433   -0.7907 H   0  0  0  0  0  0  0  0  0  0  0  0
  1  2  1  0  0  0  0
  1  5  1  0  0  0  0
  2  8  1  0  0  0  0
  3  1  1  0  0  0  0
  4  1  1  0  0  0  0
  6  2  1  0  0  0  0
  6  9  1  0  0  0  0
  6 10  1  0  0  0  0
  7  2  1  0  0  0  0
  9 12  1  0  0  0  0
 11  6  1  0  0  0  0
 13  9  1  0  0  0  0
 14  9  1  0  0  0  0
M  END
$$$$
