butane_opt
 OpenBabel08242015413D

 14 13  0  0  0  0  0  0  0  0999 V2000
   -3.9434    0.2595    0.0463 C   0  0  0  0  0  0  0  0  0  0  0  0
   -2.7078   -0.6128    0.0270 C   0  0  0  0  0  0  0  0  0  0  0  0
   -4.8364   -0.3341   -0.1108 H   0  0  0  0  0  0  0  0  0  0  0  0
   -3.9193    0.7300   -0.7831 H   0  0  0  0  0  0  0  0  0  0  0  0
   -4.0093    1.0688    0.9958 H   0  0  0  0  0  0  0  0  0  0  0  0
   -1.4046    0.2012   -0.0237 C   0  0  0  0  0  0  0  0  0  0  0  0
   -2.7547   -1.3222   -0.8750 H   0  0  0  0  0  0  0  0  0  0  0  0
   -2.7780   -1.2005    0.9053 H   0  0  0  0  0  0  0  0  0  0  0  0
   -0.1510   -0.6996    0.0567 C   0  0  0  0  0  0  0  0  0  0  0  0
   -1.3956    0.7893    0.7781 H   0  0  0  0  0  0  0  0  0  0  0  0
   -1.3845    0.8601   -0.9279 H   0  0  0  0  0  0  0  0  0  0  0  0
   -0.1282   -1.3974    1.0062 H   0  0  0  0  0  0  0  0  0  0  0  0
    0.7338   -0.1441   -0.0412 H   0  0  0  0  0  0  0  0  0  0  0  0
   -0.0696   -1.3009   -0.7616 H   0  0  0  0  0  0  0  0  0  0  0  0
  1  5  1  0  0  0  0
  2  1  1  0  0  0  0
  2  8  1  0  0  0  0
  3  1  1  0  0  0  0
  4  1  1  0  0  0  0
  6  2  1  0  0  0  0
  6  9  1  0  0  0  0
  6 10  1  0  0  0  0
  7  2  1  0  0  0  0
  9 12  1  0  0  0  0
 11  6  1  0  0  0  0
 13  9  1  0  0  0  0
 14  9  1  0  0  0  0
M  END
$$$$
