14
butane_opt
C  -3.947191   0.271220   0.035059
C  -2.699429  -0.628105   0.006628
H  -4.857675  -0.285762   0.033756
H  -4.050050   0.829379  -0.810502
H  -3.919297   0.985273   0.930734
C  -1.403161   0.174707   0.001929
H  -2.738567  -1.320736  -0.856294
H  -2.735816  -1.229644   0.879271
C  -0.160614  -0.688344   0.051217
H  -1.404806   0.876988   0.861125
H  -1.334948   0.863311  -0.913519
H  -0.083586  -1.426074   1.001341
H   0.753148  -0.091614  -0.077649
H  -0.135642  -1.225826  -0.733817
