butane_opt
 OpenBabel08242015413D

 14 13  0  0  0  0  0  0  0  0999 V2000
   -3.9364    0.2538    0.0087 C   0  0  0  0  0  0  0  0  0  0  0  0
   -2.7087   -0.6057    0.0414 C   0  0  0  0  0  0  0  0  0  0  0  0
   -4.8354   -0.3190    0.1602 H   0  0  0  0  0  0  0  0  0  0  0  0
   -3.9890    1.0002   -0.9742 H   0  0  0  0  0  0  0  0  0  0  0  0
   -3.9530    0.8110    0.7720 H   0  0  0  0  0  0  0  0  0  0  0  0
   -1.4066    0.2006    0.0247 C   0  0  0  0  0  0  0  0  0  0  0  0
   -2.7686   -1.3110   -0.8516 H   0  0  0  0  0  0  0  0  0  0  0  0
   -2.7265   -1.2476    0.9524 H   0  0  0  0  0  0  0  0  0  0  0  0
   -0.1500   -0.7053    0.0252 C   0  0  0  0  0  0  0  0  0  0  0  0
   -1.3489    0.9323    0.9287 H   0  0  0  0  0  0  0  0  0  0  0  0
   -1.4170    0.7624   -0.8071 H   0  0  0  0  0  0  0  0  0  0  0  0
   -0.1101   -1.3004    0.9025 H   0  0  0  0  0  0  0  0  0  0  0  0
    0.7447   -0.1417    0.0140 H   0  0  0  0  0  0  0  0  0  0  0  0
   -0.1892   -1.3775   -0.8673 H   0  0  0  0  0  0  0  0  0  0  0  0
  1  2  1  0  0  0  0
  1  3  1  0  0  0  0
  1  5  1  0  0  0  0
  2  8  1  0  0  0  0
  4  1  1  0  0  0  0
  6  9  1  0  0  0  0
  6  2  1  0  0  0  0
  6 10  1  0  0  0  0
  7  2  1  0  0  0  0
  9 12  1  0  0  0  0
 11  6  1  0  0  0  0
 13  9  1  0  0  0  0
 14  9  1  0  0  0  0
M  END
$$$$
