butane_opt
 OpenBabel08242015413D

 14 13  0  0  0  0  0  0  0  0999 V2000
   -3.9604    0.2795   -0.0114 C   0  0  0  0  0  0  0  0  0  0  0  0
   -2.7066   -0.6271    0.0700 C   0  0  0  0  0  0  0  0  0  0  0  0
   -4.8862   -0.3034    0.0086 H   0  0  0  0  0  0  0  0  0  0  0  0
   -4.0039    0.9313   -0.9533 H   0  0  0  0  0  0  0  0  0  0  0  0
   -3.9643    0.9250    0.8300 H   0  0  0  0  0  0  0  0  0  0  0  0
   -1.3922    0.1755    0.0362 C   0  0  0  0  0  0  0  0  0  0  0  0
   -2.7100   -1.2930   -0.7532 H   0  0  0  0  0  0  0  0  0  0  0  0
   -2.7025   -1.3251    1.0187 H   0  0  0  0  0  0  0  0  0  0  0  0
   -0.1588   -0.6866    0.0086 C   0  0  0  0  0  0  0  0  0  0  0  0
   -1.3417    0.8646    0.8882 H   0  0  0  0  0  0  0  0  0  0  0  0
   -1.3527    0.7677   -0.8256 H   0  0  0  0  0  0  0  0  0  0  0  0
   -0.0953   -1.2221    0.8405 H   0  0  0  0  0  0  0  0  0  0  0  0
    0.7983   -0.0628    0.0305 H   0  0  0  0  0  0  0  0  0  0  0  0
   -0.1566   -1.4384   -0.9050 H   0  0  0  0  0  0  0  0  0  0  0  0
  1  3  1  0  0  0  0
  1  2  1  0  0  0  0
  1  5  1  0  0  0  0
  2  8  1  0  0  0  0
  4  1  1  0  0  0  0
  6  2  1  0  0  0  0
  6 10  1  0  0  0  0
  7  2  1  0  0  0  0
  9 13  1  0  0  0  0
  9  6  1  0  0  0  0
  9 12  1  0  0  0  0
 11  6  1  0  0  0  0
 14  9  1  0  0  0  0
M  END
$$$$
