14
butane_opt
C  -3.968816   0.277157   0.057992
C  -2.694927  -0.634253  -0.007986
H  -4.883066  -0.295387   0.139627
H  -4.047691   0.948163  -0.865658
H  -3.900677   0.886468   0.914677
C  -1.386760   0.179983  -0.024802
H  -2.726727  -1.341997  -0.895963
H  -2.712561  -1.194319   0.829468
C  -0.156278  -0.690364   0.064080
H  -1.374555   0.857755   0.827961
H  -1.337752   0.795307  -0.899259
H  -0.195777  -1.333117   0.994073
H   0.749867  -0.107804   0.048726
H  -0.112206  -1.273670  -0.724911
