butane_opt
 OpenBabel08242015413D

 14 13  0  0  0  0  0  0  0  0999 V2000
   -3.9457    0.2569   -0.0019 C   0  0  0  0  0  0  0  0  0  0  0  0
   -2.7146   -0.5973    0.0712 C   0  0  0  0  0  0  0  0  0  0  0  0
   -4.8888   -0.3658   -0.1076 H   0  0  0  0  0  0  0  0  0  0  0  0
   -3.8553    0.8283   -0.9006 H   0  0  0  0  0  0  0  0  0  0  0  0
   -4.0375    0.9492    0.8579 H   0  0  0  0  0  0  0  0  0  0  0  0
   -1.4009    0.1918    0.0299 C   0  0  0  0  0  0  0  0  0  0  0  0
   -2.7347   -1.2659   -0.7575 H   0  0  0  0  0  0  0  0  0  0  0  0
   -2.7290   -1.2755    1.0155 H   0  0  0  0  0  0  0  0  0  0  0  0
   -0.1521   -0.7035    0.0040 C   0  0  0  0  0  0  0  0  0  0  0  0
   -1.3475    0.8955    0.9224 H   0  0  0  0  0  0  0  0  0  0  0  0
   -1.4543    0.8163   -0.8612 H   0  0  0  0  0  0  0  0  0  0  0  0
   -0.0342   -1.3096    0.8802 H   0  0  0  0  0  0  0  0  0  0  0  0
    0.7500   -0.1436   -0.0032 H   0  0  0  0  0  0  0  0  0  0  0  0
   -0.1328   -1.3764   -0.8374 H   0  0  0  0  0  0  0  0  0  0  0  0
  1  2  1  0  0  0  0
  1  5  1  0  0  0  0
  2  8  1  0  0  0  0
  3  1  1  0  0  0  0
  4  1  1  0  0  0  0
  6  2  1  0  0  0  0
  6 10  1  0  0  0  0
  7  2  1  0  0  0  0
  9  6  1  0  0  0  0
  9 12  1  0  0  0  0
 11  6  1  0  0  0  0
 13  9  1  0  0  0  0
 14  9  1  0  0  0  0
M  END
$$$$
