14
butane_opt
C  -3.947666   0.256831   0.026234
C  -2.705290  -0.617043   0.009676
H  -4.868411  -0.338781   0.158538
H  -4.050375   0.939154  -0.883875
H  -3.909580   0.923687   0.877001
C  -1.403158   0.193568   0.011158
H  -2.746020  -1.287787  -0.857468
H  -2.693694  -1.282781   0.911996
C  -0.147818  -0.687438   0.043973
H  -1.408262   0.881722   0.848803
H  -1.391827   0.822651  -0.867511
H  -0.138509  -1.367175   0.963703
H   0.711028  -0.153179   0.013312
H  -0.075488  -1.364845  -0.820941
