14
butane_opt
C  -3.969153   0.269544   0.002498
C  -2.689611  -0.622522   0.067596
H  -4.874107  -0.319467  -0.110497
H  -3.925885   0.835083  -0.863538
H  -4.020140   0.988271   0.897378
C  -1.397247   0.177307   0.029952
H  -2.662651  -1.280326  -0.762973
H  -2.770074  -1.244527   0.954286
C  -0.156032  -0.682633   0.012843
H  -1.357453   0.826081   0.837806
H  -1.398557   0.824079  -0.878714
H  -0.105115  -1.325634   0.907931
H   0.773794  -0.090901  -0.031105
H  -0.146048  -1.382520  -0.857750
