butane_opt
 OpenBabel08242015413D

 14 13  0  0  0  0  0  0  0  0999 V2000
   -3.9321    0.2575    0.0291 C   0  0  0  0  0  0  0  0  0  0  0  0
   -2.7048   -0.5937    0.0314 C   0  0  0  0  0  0  0  0  0  0  0  0
   -4.8843   -0.3770   -0.0483 H   0  0  0  0  0  0  0  0  0  0  0  0
   -3.8850    0.8023   -0.8324 H   0  0  0  0  0  0  0  0  0  0  0  0
   -3.9692    1.0025    0.9460 H   0  0  0  0  0  0  0  0  0  0  0  0
   -1.4144    0.1867   -0.0060 C   0  0  0  0  0  0  0  0  0  0  0  0
   -2.7645   -1.2805   -0.8485 H   0  0  0  0  0  0  0  0  0  0  0  0
   -2.6673   -1.2680    0.9519 H   0  0  0  0  0  0  0  0  0  0  0  0
   -0.1644   -0.7008    0.0383 C   0  0  0  0  0  0  0  0  0  0  0  0
   -1.3784    0.8605    0.8539 H   0  0  0  0  0  0  0  0  0  0  0  0
   -1.3742    0.8002   -0.8793 H   0  0  0  0  0  0  0  0  0  0  0  0
   -0.1175   -1.4121    0.9721 H   0  0  0  0  0  0  0  0  0  0  0  0
    0.7283   -0.0902    0.0089 H   0  0  0  0  0  0  0  0  0  0  0  0
   -0.1197   -1.3081   -0.7860 H   0  0  0  0  0  0  0  0  0  0  0  0
  1  2  1  0  0  0  0
  1  5  1  0  0  0  0
  2  8  1  0  0  0  0
  3  1  1  0  0  0  0
  4  1  1  0  0  0  0
  6  2  1  0  0  0  0
  6  9  1  0  0  0  0
  6 10  1  0  0  0  0
  7  2  1  0  0  0  0
  9 12  1  0  0  0  0
 11  6  1  0  0  0  0
 13  9  1  0  0  0  0
 14  9  1  0  0  0  0
M  END
$$$$
