14
butane_opt
C  -3.933217   0.248567   0.000347
C  -2.701120  -0.595950   0.071363
H  -4.867798  -0.332462  -0.085347
H  -3.885842   0.855094  -0.908058
H  -3.966317   0.929367   0.867404
C  -1.404767   0.190222   0.028814
H  -2.708253  -1.282179  -0.778777
H  -2.710796  -1.228920   0.952623
C  -0.173971  -0.704272   0.006937
H  -1.332499   0.885213   0.906026
H  -1.454885   0.869577  -0.864772
H  -0.118572  -1.314892   0.909519
H   0.708778  -0.133405  -0.006580
H  -0.125723  -1.392180  -0.843682
