14
butane_opt
C  -3.935728   0.255178   0.049750
C  -2.689974  -0.598361   0.001480
H  -4.884405  -0.398335   0.104272
H  -4.019670   0.790204  -0.793346
H  -3.880192   0.950590   0.919675
C  -1.413056   0.192716  -0.038707
H  -2.730948  -1.252516  -0.843798
H  -2.698316  -1.220934   0.895523
C  -0.164382  -0.701245   0.073236
H  -1.409839   0.847863   0.819828
H  -1.412289   0.864008  -0.954550
H  -0.193138  -1.295788   0.951114
H   0.720270  -0.139608   0.110251
H  -0.068072  -1.409671  -0.794952
