14
butane_opt
C  -3.937063   0.256728   0.036195
C  -2.710359  -0.599811   0.011756
H  -4.869866  -0.371887   0.041595
H  -3.968264   0.785664  -0.790245
H  -3.864529   0.964581   0.949142
C  -1.415504   0.191993  -0.020582
H  -2.727995  -1.264850  -0.816394
H  -2.662567  -1.247421   0.940732
C  -0.153201  -0.704276   0.053654
H  -1.422491   0.869373   0.816558
H  -1.387533   0.877583  -0.943200
H  -0.175215  -1.323266   0.957689
H   0.755898  -0.142036   0.113751
H  -0.102451  -1.364926  -0.798191
