butane_opt
 OpenBabel08242015413D

 14 13  0  0  0  0  0  0  0  0999 V2000
   -3.9312    0.2485    0.0287 C   0  0  0  0  0  0  0  0  0  0  0  0
   -2.6984   -0.5921    0.0339 C   0  0  0  0  0  0  0  0  0  0  0  0
   -4.8664   -0.3870   -0.0466 H   0  0  0  0  0  0  0  0  0  0  0  0
   -3.9062    0.8149   -0.8282 H   0  0  0  0  0  0  0  0  0  0  0  0
   -3.9745    0.9993    0.9578 H   0  0  0  0  0  0  0  0  0  0  0  0
   -1.4146    0.1921   -0.0053 C   0  0  0  0  0  0  0  0  0  0  0  0
   -2.7468   -1.2561   -0.7757 H   0  0  0  0  0  0  0  0  0  0  0  0
   -2.7240   -1.2137    0.9320 H   0  0  0  0  0  0  0  0  0  0  0  0
   -0.1636   -0.7096    0.0427 C   0  0  0  0  0  0  0  0  0  0  0  0
   -1.4764    0.8174    0.8016 H   0  0  0  0  0  0  0  0  0  0  0  0
   -1.3714    0.8605   -0.9289 H   0  0  0  0  0  0  0  0  0  0  0  0
   -0.1474   -1.2887    0.9199 H   0  0  0  0  0  0  0  0  0  0  0  0
    0.7836   -0.1006    0.0335 H   0  0  0  0  0  0  0  0  0  0  0  0
   -0.0979   -1.3863   -0.8290 H   0  0  0  0  0  0  0  0  0  0  0  0
  1  2  1  0  0  0  0
  1  5  1  0  0  0  0
  2  8  1  0  0  0  0
  3  1  1  0  0  0  0
  4  1  1  0  0  0  0
  6  2  1  0  0  0  0
  6  9  1  0  0  0  0
  6 10  1  0  0  0  0
  7  2  1  0  0  0  0
  9 12  1  0  0  0  0
 11  6  1  0  0  0  0
 13  9  1  0  0  0  0
 14  9  1  0  0  0  0
M  END
$$$$
