14
butane_opt
C  -3.938040   0.255985  -0.007702
C  -2.717943  -0.598848   0.084937
H  -4.869471  -0.380611   0.013847
H  -3.915330   0.903506  -0.961261
H  -3.934123   0.872310   0.812265
C  -1.407838   0.190407   0.020832
H  -2.720203  -1.222115  -0.735650
H  -2.693949  -1.230577   0.974919
C  -0.149952  -0.703157   0.007171
H  -1.381644   0.885501   0.897085
H  -1.402506   0.815931  -0.849781
H  -0.156067  -1.208239   0.806441
H   0.721858  -0.127552   0.141472
H  -0.100716  -1.525152  -0.944957
