14
butane_opt
C  -3.941305   0.250754  -0.013181
C  -2.717463  -0.605205   0.065495
H  -4.838797  -0.308151   0.047433
H  -3.973407   0.906369  -0.950462
H  -3.991253   0.868330   0.795594
C  -1.397847   0.201253   0.062505
H  -2.690641  -1.295823  -0.804793
H  -2.812110  -1.212693   0.931226
C  -0.142673  -0.705790  -0.002338
H  -1.361587   0.908295   0.947661
H  -1.440401   0.832560  -0.848493
H  -0.029774  -1.378013   0.927816
H   0.730475  -0.159362  -0.097339
H  -0.218388  -1.328147  -0.846918
