14
butane_opt
C  -3.946996   0.254592   0.003073
C  -2.700273  -0.605603   0.039884
H  -4.864391  -0.329842   0.185385
H  -4.001328   0.969853  -0.953124
H  -3.949795   0.810174   0.812291
C  -1.403909   0.195688   0.026105
H  -2.712526  -1.272944  -0.785297
H  -2.761608  -1.234172   0.937624
C  -0.151322  -0.702619   0.015199
H  -1.390454   0.915286   0.913240
H  -1.467731   0.756667  -0.794111
H  -0.137813  -1.315803   0.917027
H   0.768213  -0.074953   0.054531
H  -0.078798  -1.396691  -0.865807
