14
butane_opt
C  -3.940760   0.276913   0.022063
C  -2.691900  -0.633237   0.019306
H  -4.842143  -0.325815   0.169948
H  -4.050939   0.931118  -0.882667
H  -3.891099   0.904790   0.849095
C  -1.414370   0.178520   0.009805
H  -2.684619  -1.279820  -0.831408
H  -2.679617  -1.280888   0.910685
C  -0.165858  -0.683180   0.039109
H  -1.365316   0.833755   0.855333
H  -1.357853   0.803931  -0.887723
H  -0.214740  -1.266844   0.933110
H   0.739335  -0.074082   0.074673
H  -0.123781  -1.385155  -0.842290
