14
butane_opt
C  -3.929217   0.253127   0.039933
C  -2.699578  -0.600225   0.026237
H  -4.829716  -0.332282  -0.064696
H  -3.887135   0.710241  -0.745885
H  -3.987039   1.032760   0.986617
C  -1.410192   0.198357  -0.026976
H  -2.773985  -1.291648  -0.838125
H  -2.733352  -1.196622   0.918930
C  -0.161734  -0.706568   0.048515
H  -1.423408   0.828342   0.798071
H  -1.407008   0.859654  -0.940116
H  -0.202688  -1.393747   1.006394
H   0.717179  -0.117034   0.049219
H  -0.084846  -1.315548  -0.762426
