butane_opt
 OpenBabel08242015413D

 14 13  0  0  0  0  0  0  0  0999 V2000
   -3.9527    0.2553    0.0446 C   0  0  0  0  0  0  0  0  0  0  0  0
   -2.7067   -0.6134    0.0024 C   0  0  0  0  0  0  0  0  0  0  0  0
   -4.8585   -0.3474    0.1312 H   0  0  0  0  0  0  0  0  0  0  0  0
   -3.9997    0.9536   -0.9076 H   0  0  0  0  0  0  0  0  0  0  0  0
   -3.8945    0.8865    0.8613 H   0  0  0  0  0  0  0  0  0  0  0  0
   -1.4133    0.2069   -0.0056 C   0  0  0  0  0  0  0  0  0  0  0  0
   -2.7423   -1.3262   -0.8598 H   0  0  0  0  0  0  0  0  0  0  0  0
   -2.7157   -1.2563    0.9052 H   0  0  0  0  0  0  0  0  0  0  0  0
   -0.1441   -0.7022    0.0531 C   0  0  0  0  0  0  0  0  0  0  0  0
   -1.3952    0.8977    0.8555 H   0  0  0  0  0  0  0  0  0  0  0  0
   -1.3653    0.7944   -0.8769 H   0  0  0  0  0  0  0  0  0  0  0  0
   -0.1177   -1.3447    0.9765 H   0  0  0  0  0  0  0  0  0  0  0  0
    0.7345   -0.1166    0.0122 H   0  0  0  0  0  0  0  0  0  0  0  0
   -0.0690   -1.3675   -0.8005 H   0  0  0  0  0  0  0  0  0  0  0  0
  1  3  1  0  0  0  0
  1  5  1  0  0  0  0
  2  1  1  0  0  0  0
  2  8  1  0  0  0  0
  4  1  1  0  0  0  0
  6  2  1  0  0  0  0
  6  9  1  0  0  0  0
  6 10  1  0  0  0  0
  7  2  1  0  0  0  0
  9 12  1  0  0  0  0
 11  6  1  0  0  0  0
 13  9  1  0  0  0  0
 14  9  1  0  0  0  0
M  END
$$$$
