14
butane_opt
C  -3.951523   0.260260   0.038708
C  -2.699561  -0.607252   0.002704
H  -4.906511  -0.348601   0.211958
H  -4.054526   0.909365  -0.858672
H  -3.860513   0.829678   0.843994
C  -1.401537   0.197766  -0.007117
H  -2.725442  -1.324061  -0.866354
H  -2.685473  -1.188830   0.852190
C  -0.152350  -0.701698   0.052598
H  -1.433709   0.896137   0.834657
H  -1.369876   0.793658  -0.884936
H  -0.203019  -1.346185   1.012207
H   0.750240  -0.128250   0.029784
H  -0.070144  -1.360025  -0.788263
