butane_opt
 OpenBabel08242015413D

 14 13  0  0  0  0  0  0  0  0999 V2000
   -3.9562    0.2708    0.0458 C   0  0  0  0  0  0  0  0  0  0  0  0
   -2.6928   -0.6318   -0.0088 C   0  0  0  0  0  0  0  0  0  0  0  0
   -4.8734   -0.3153    0.1506 H   0  0  0  0  0  0  0  0  0  0  0  0
   -4.0919    0.8980   -0.8536 H   0  0  0  0  0  0  0  0  0  0  0  0
   -3.9199    0.9645    0.9385 H   0  0  0  0  0  0  0  0  0  0  0  0
   -1.3933    0.1798   -0.0164 C   0  0  0  0  0  0  0  0  0  0  0  0
   -2.7432   -1.3123   -0.8770 H   0  0  0  0  0  0  0  0  0  0  0  0
   -2.6727   -1.2621    0.8926 H   0  0  0  0  0  0  0  0  0  0  0  0
   -0.1651   -0.6837    0.0605 C   0  0  0  0  0  0  0  0  0  0  0  0
   -1.4083    0.8537    0.8496 H   0  0  0  0  0  0  0  0  0  0  0  0
   -1.3548    0.8501   -0.9225 H   0  0  0  0  0  0  0  0  0  0  0  0
   -0.1610   -1.3415    0.9882 H   0  0  0  0  0  0  0  0  0  0  0  0
    0.7545   -0.1054    0.0510 H   0  0  0  0  0  0  0  0  0  0  0  0
   -0.0651   -1.3204   -0.7510 H   0  0  0  0  0  0  0  0  0  0  0  0
  1  3  1  0  0  0  0
  1  5  1  0  0  0  0
  2  1  1  0  0  0  0
  2  8  1  0  0  0  0
  4  1  1  0  0  0  0
  6  2  1  0  0  0  0
  6  9  1  0  0  0  0
  6 10  1  0  0  0  0
  7  2  1  0  0  0  0
  9 12  1  0  0  0  0
 11  6  1  0  0  0  0
 13  9  1  0  0  0  0
 14  9  1  0  0  0  0
M  END
$$$$
