14
butane_opt
C  -3.952761   0.268684  -0.008200
C  -2.708247  -0.630133   0.070897
H  -4.815961  -0.241612  -0.010348
H  -3.941919   0.846033  -0.908072
H  -4.028046   1.010260   0.883592
C  -1.400377   0.173555   0.030414
H  -2.707733  -1.295631  -0.775933
H  -2.742625  -1.267997   0.969196
C  -0.155120  -0.685155   0.015816
H  -1.337022   0.843985   0.884024
H  -1.362952   0.862862  -0.886407
H  -0.085165  -1.272394   0.876247
H   0.766018  -0.078511  -0.006459
H  -0.179529  -1.398701  -0.886586
