butane_opt
 OpenBabel08242015413D

 14 13  0  0  0  0  0  0  0  0999 V2000
   -3.9536    0.2586    0.0279 C   0  0  0  0  0  0  0  0  0  0  0  0
   -2.7097   -0.6038    0.0311 C   0  0  0  0  0  0  0  0  0  0  0  0
   -4.8871   -0.3518   -0.0042 H   0  0  0  0  0  0  0  0  0  0  0  0
   -3.9987    0.7846   -0.7755 H   0  0  0  0  0  0  0  0  0  0  0  0
   -3.9753    1.0284    0.9371 H   0  0  0  0  0  0  0  0  0  0  0  0
   -1.3951    0.1896   -0.0107 C   0  0  0  0  0  0  0  0  0  0  0  0
   -2.7276   -1.2978   -0.8490 H   0  0  0  0  0  0  0  0  0  0  0  0
   -2.6755   -1.2207    0.8978 H   0  0  0  0  0  0  0  0  0  0  0  0
   -0.1535   -0.6982    0.0532 C   0  0  0  0  0  0  0  0  0  0  0  0
   -1.3694    0.7891    0.8022 H   0  0  0  0  0  0  0  0  0  0  0  0
   -1.3552    0.8753   -0.9531 H   0  0  0  0  0  0  0  0  0  0  0  0
   -0.1441   -1.3351    0.9881 H   0  0  0  0  0  0  0  0  0  0  0  0
    0.7618   -0.1007    0.0024 H   0  0  0  0  0  0  0  0  0  0  0  0
   -0.1032   -1.4068   -0.8189 H   0  0  0  0  0  0  0  0  0  0  0  0
  1  2  1  0  0  0  0
  1  5  1  0  0  0  0
  2  8  1  0  0  0  0
  3  1  1  0  0  0  0
  4  1  1  0  0  0  0
  6  2  1  0  0  0  0
  6  9  1  0  0  0  0
  6 10  1  0  0  0  0
  7  2  1  0  0  0  0
  9 12  1  0  0  0  0
 11  6  1  0  0  0  0
 13  9  1  0  0  0  0
 14  9  1  0  0  0  0
M  END
$$$$
