14
butane_opt
C  -3.949845   0.270893  -0.004067
C  -2.692195  -0.620146   0.076551
H  -4.837966  -0.312821  -0.107524
H  -3.894015   0.835870  -0.883530
H  -4.045956   0.997411   0.897471
C  -1.394970   0.172468   0.031399
H  -2.699757  -1.292170  -0.763610
H  -2.720906  -1.292733   0.993233
C  -0.163403  -0.691292   0.009737
H  -1.449385   0.843651   0.870786
H  -1.391455   0.843179  -0.912148
H  -0.147870  -1.223789   0.858035
H   0.765221  -0.058781  -0.019919
H  -0.199471  -1.389226  -0.862196
