butane_opt
 OpenBabel08242015413D

 14 13  0  0  0  0  0  0  0  0999 V2000
   -3.9316    0.2586    0.0019 C   0  0  0  0  0  0  0  0  0  0  0  0
   -2.7068   -0.6013    0.0573 C   0  0  0  0  0  0  0  0  0  0  0  0
   -4.8618   -0.3687    0.0405 H   0  0  0  0  0  0  0  0  0  0  0  0
   -3.9124    0.8990   -0.9476 H   0  0  0  0  0  0  0  0  0  0  0  0
   -3.9529    0.8880    0.8450 H   0  0  0  0  0  0  0  0  0  0  0  0
   -1.4107    0.1857    0.0343 C   0  0  0  0  0  0  0  0  0  0  0  0
   -2.7279   -1.2278   -0.7578 H   0  0  0  0  0  0  0  0  0  0  0  0
   -2.6892   -1.2363    0.9466 H   0  0  0  0  0  0  0  0  0  0  0  0
   -0.1684   -0.7001    0.0129 C   0  0  0  0  0  0  0  0  0  0  0  0
   -1.4032    0.8425    0.8769 H   0  0  0  0  0  0  0  0  0  0  0  0
   -1.3939    0.8177   -0.8981 H   0  0  0  0  0  0  0  0  0  0  0  0
   -0.0843   -1.2593    0.8703 H   0  0  0  0  0  0  0  0  0  0  0  0
    0.7492   -0.0928    0.0745 H   0  0  0  0  0  0  0  0  0  0  0  0
   -0.1413   -1.4487   -0.8955 H   0  0  0  0  0  0  0  0  0  0  0  0
  1  3  1  0  0  0  0
  1  2  1  0  0  0  0
  1  5  1  0  0  0  0
  2  8  1  0  0  0  0
  4  1  1  0  0  0  0
  6  2  1  0  0  0  0
  6 10  1  0  0  0  0
  7  2  1  0  0  0  0
  9  6  1  0  0  0  0
  9 13  1  0  0  0  0
  9 12  1  0  0  0  0
 11  6  1  0  0  0  0
 14  9  1  0  0  0  0
M  END
$$$$
