butane_opt
 OpenBabel08242015413D

 14 13  0  0  0  0  0  0  0  0999 V2000
   -3.9518    0.2729   -0.0210 C   0  0  0  0  0  0  0  0  0  0  0  0
   -2.7027   -0.6385    0.0881 C   0  0  0  0  0  0  0  0  0  0  0  0
   -4.8461   -0.2850   -0.0006 H   0  0  0  0  0  0  0  0  0  0  0  0
   -3.9594    0.9234   -0.9216 H   0  0  0  0  0  0  0  0  0  0  0  0
   -4.0925    0.9874    0.8299 H   0  0  0  0  0  0  0  0  0  0  0  0
   -1.3883    0.1810    0.0429 C   0  0  0  0  0  0  0  0  0  0  0  0
   -2.6858   -1.3430   -0.7513 H   0  0  0  0  0  0  0  0  0  0  0  0
   -2.7473   -1.2560    0.9756 H   0  0  0  0  0  0  0  0  0  0  0  0
   -0.1603   -0.6900   -0.0068 C   0  0  0  0  0  0  0  0  0  0  0  0
   -1.3351    0.8882    0.9214 H   0  0  0  0  0  0  0  0  0  0  0  0
   -1.4044    0.8168   -0.8491 H   0  0  0  0  0  0  0  0  0  0  0  0
   -0.1351   -1.2622    0.8808 H   0  0  0  0  0  0  0  0  0  0  0  0
    0.7845   -0.0684   -0.0044 H   0  0  0  0  0  0  0  0  0  0  0  0
   -0.1655   -1.3763   -0.8777 H   0  0  0  0  0  0  0  0  0  0  0  0
  1  3  1  0  0  0  0
  1  2  1  0  0  0  0
  1  5  1  0  0  0  0
  2  8  1  0  0  0  0
  4  1  1  0  0  0  0
  6  2  1  0  0  0  0
  6 10  1  0  0  0  0
  7  2  1  0  0  0  0
  9 13  1  0  0  0  0
  9  6  1  0  0  0  0
  9 12  1  0  0  0  0
 11  6  1  0  0  0  0
 14  9  1  0  0  0  0
M  END
$$$$
