butane_opt
 OpenBabel08242015413D

 14 13  0  0  0  0  0  0  0  0999 V2000
   -3.9483    0.2609    0.0422 C   0  0  0  0  0  0  0  0  0  0  0  0
   -2.7029   -0.6214    0.0088 C   0  0  0  0  0  0  0  0  0  0  0  0
   -4.8533   -0.3005    0.1032 H   0  0  0  0  0  0  0  0  0  0  0  0
   -3.9800    0.8705   -0.8402 H   0  0  0  0  0  0  0  0  0  0  0  0
   -3.9391    0.9183    0.9079 H   0  0  0  0  0  0  0  0  0  0  0  0
   -1.4117    0.1991   -0.0151 C   0  0  0  0  0  0  0  0  0  0  0  0
   -2.7967   -1.3814   -0.8903 H   0  0  0  0  0  0  0  0  0  0  0  0
   -2.7014   -1.1917    0.8760 H   0  0  0  0  0  0  0  0  0  0  0  0
   -0.1446   -0.6994    0.0587 C   0  0  0  0  0  0  0  0  0  0  0  0
   -1.4442    0.8879    0.8304 H   0  0  0  0  0  0  0  0  0  0  0  0
   -1.3592    0.8537   -0.9143 H   0  0  0  0  0  0  0  0  0  0  0  0
   -0.1018   -1.3767    0.9911 H   0  0  0  0  0  0  0  0  0  0  0  0
    0.7488   -0.1093   -0.0019 H   0  0  0  0  0  0  0  0  0  0  0  0
   -0.1122   -1.3104   -0.7547 H   0  0  0  0  0  0  0  0  0  0  0  0
  1  3  1  0  0  0  0
  1  5  1  0  0  0  0
  2  1  1  0  0  0  0
  2  8  1  0  0  0  0
  4  1  1  0  0  0  0
  6  2  1  0  0  0  0
  6  9  1  0  0  0  0
  6 10  1  0  0  0  0
  7  2  1  0  0  0  0
  9 12  1  0  0  0  0
 11  6  1  0  0  0  0
 13  9  1  0  0  0  0
 14  9  1  0  0  0  0
M  END
$$$$
