14
butane_opt
C  -3.954586   0.276389   0.004172
C  -2.703183  -0.635256   0.069596
H  -4.858684  -0.294356  -0.047257
H  -3.943565   0.886719  -0.899605
H  -4.048189   1.003800   0.861962
C  -1.393720   0.177629   0.020340
H  -2.683218  -1.335714  -0.788215
H  -2.760915  -1.283400   0.990967
C  -0.153515  -0.682780   0.011445
H  -1.376602   0.844780   0.863587
H  -1.428830   0.801608  -0.870444
H  -0.130081  -1.275435   0.898724
H   0.798198  -0.064901   0.053083
H  -0.141502  -1.379036  -0.882255
