butane_opt
 OpenBabel08242015413D

 14 13  0  0  0  0  0  0  0  0999 V2000
   -3.9545    0.2672    0.0016 C   0  0  0  0  0  0  0  0  0  0  0  0
   -2.7082   -0.6283    0.0667 C   0  0  0  0  0  0  0  0  0  0  0  0
   -4.8126   -0.2682    0.0686 H   0  0  0  0  0  0  0  0  0  0  0  0
   -3.9773    0.8862   -0.8972 H   0  0  0  0  0  0  0  0  0  0  0  0
   -3.9635    0.9056    0.8512 H   0  0  0  0  0  0  0  0  0  0  0  0
   -1.4047    0.1912    0.0043 C   0  0  0  0  0  0  0  0  0  0  0  0
   -2.6894   -1.3062   -0.7737 H   0  0  0  0  0  0  0  0  0  0  0  0
   -2.7195   -1.2953    0.9881 H   0  0  0  0  0  0  0  0  0  0  0  0
   -0.1494   -0.6945    0.0122 C   0  0  0  0  0  0  0  0  0  0  0  0
   -1.3750    0.9260    0.8774 H   0  0  0  0  0  0  0  0  0  0  0  0
   -1.3934    0.8039   -0.8765 H   0  0  0  0  0  0  0  0  0  0  0  0
   -0.1955   -1.2074    0.8950 H   0  0  0  0  0  0  0  0  0  0  0  0
    0.7623   -0.0897    0.1805 H   0  0  0  0  0  0  0  0  0  0  0  0
   -0.0660   -1.4530   -0.9007 H   0  0  0  0  0  0  0  0  0  0  0  0
  1  2  1  0  0  0  0
  1  3  1  0  0  0  0
  1  5  1  0  0  0  0
  2  8  1  0  0  0  0
  4  1  1  0  0  0  0
  6  9  1  0  0  0  0
  6  2  1  0  0  0  0
  6 10  1  0  0  0  0
  7  2  1  0  0  0  0
  9 13  1  0  0  0  0
  9 12  1  0  0  0  0
 11  6  1  0  0  0  0
 14  9  1  0  0  0  0
M  END
$$$$
