14
butane_opt
C  -3.946263   0.254112   0.044174
C  -2.707167  -0.608690   0.004146
H  -4.870731  -0.331910   0.186724
H  -4.031998   0.940583  -0.897669
H  -3.900840   0.827288   0.878327
C  -1.398706   0.203435  -0.012958
H  -2.796291  -1.340875  -0.907223
H  -2.690563  -1.176108   0.856735
C  -0.148205  -0.705065   0.062146
H  -1.428687   0.902204   0.844540
H  -1.334640   0.844046  -0.909423
H  -0.154635  -1.325053   0.969120
H   0.685794  -0.178383   0.022388
H  -0.083221  -1.369604  -0.789700
