14
butane_opt
C  -3.950656   0.269647  -0.007979
C  -2.698862  -0.626739   0.051825
H  -4.849042  -0.310186   0.140623
H  -4.030172   0.947286  -0.950423
H  -4.006570   0.831818   0.766688
C  -1.397628   0.189047   0.042958
H  -2.660039  -1.240001  -0.744880
H  -2.686087  -1.324476   0.976754
C  -0.162902  -0.689553   0.010041
H  -1.351545   0.916901   0.909335
H  -1.386689   0.766370  -0.814079
H  -0.108506  -1.236160   0.856133
H   0.721652  -0.092725   0.036894
H  -0.142163  -1.442855  -0.912964
