butane_opt
 OpenBabel08242015413D

 14 13  0  0  0  0  0  0  0  0999 V2000
   -3.9463    0.2524   -0.0091 C   0  0  0  0  0  0  0  0  0  0  0  0
   -2.7087   -0.6027    0.0488 C   0  0  0  0  0  0  0  0  0  0  0  0
   -4.8813   -0.3652    0.1326 H   0  0  0  0  0  0  0  0  0  0  0  0
   -4.0132    0.9509   -0.9619 H   0  0  0  0  0  0  0  0  0  0  0  0
   -3.9479    0.8305    0.7839 H   0  0  0  0  0  0  0  0  0  0  0  0
   -1.4096    0.2110    0.0462 C   0  0  0  0  0  0  0  0  0  0  0  0
   -2.7225   -1.2354   -0.7498 H   0  0  0  0  0  0  0  0  0  0  0  0
   -2.7407   -1.2857    0.9951 H   0  0  0  0  0  0  0  0  0  0  0  0
   -0.1400   -0.7152    0.0085 C   0  0  0  0  0  0  0  0  0  0  0  0
   -1.3784    0.8942    0.8954 H   0  0  0  0  0  0  0  0  0  0  0  0
   -1.3970    0.7887   -0.7827 H   0  0  0  0  0  0  0  0  0  0  0  0
   -0.1145   -1.2482    0.8704 H   0  0  0  0  0  0  0  0  0  0  0  0
    0.7675   -0.1058    0.0057 H   0  0  0  0  0  0  0  0  0  0  0  0
   -0.1262   -1.4460   -0.9036 H   0  0  0  0  0  0  0  0  0  0  0  0
  1  2  1  0  0  0  0
  1  3  1  0  0  0  0
  1  5  1  0  0  0  0
  2  8  1  0  0  0  0
  4  1  1  0  0  0  0
  6  2  1  0  0  0  0
  6 10  1  0  0  0  0
  7  2  1  0  0  0  0
  9  6  1  0  0  0  0
  9 12  1  0  0  0  0
 11  6  1  0  0  0  0
 13  9  1  0  0  0  0
 14  9  1  0  0  0  0
M  END
$$$$
