14
butane_opt
C  -3.943146   0.251000  -0.003560
C  -2.705927  -0.601000   0.056537
H  -4.854453  -0.363976   0.135789
H  -4.007063   1.011268  -1.006574
H  -3.931179   0.778970   0.764086
C  -1.416459   0.194835   0.041908
H  -2.781031  -1.298609  -0.821678
H  -2.698806  -1.201693   0.951851
C  -0.143802  -0.705958   0.014010
H  -1.390855   0.930699   0.937374
H  -1.412127   0.791819  -0.830465
H  -0.064011  -1.263461   0.835964
H   0.747308  -0.118579  -0.002382
H  -0.114058  -1.403713  -0.857780
