butane_opt
 OpenBabel08242015413D

 14 13  0  0  0  0  0  0  0  0999 V2000
   -3.9483    0.2580    0.0290 C   0  0  0  0  0  0  0  0  0  0  0  0
   -2.7156   -0.6024    0.0352 C   0  0  0  0  0  0  0  0  0  0  0  0
   -4.8601   -0.3402   -0.0687 H   0  0  0  0  0  0  0  0  0  0  0  0
   -3.9277    0.7947   -0.8115 H   0  0  0  0  0  0  0  0  0  0  0  0
   -3.9352    0.9840    0.9123 H   0  0  0  0  0  0  0  0  0  0  0  0
   -1.3962    0.1957    0.0055 C   0  0  0  0  0  0  0  0  0  0  0  0
   -2.7133   -1.2960   -0.8339 H   0  0  0  0  0  0  0  0  0  0  0  0
   -2.7676   -1.2338    0.8969 H   0  0  0  0  0  0  0  0  0  0  0  0
   -0.1498   -0.6997    0.0395 C   0  0  0  0  0  0  0  0  0  0  0  0
   -1.4255    0.8232    0.8146 H   0  0  0  0  0  0  0  0  0  0  0  0
   -1.4025    0.8346   -0.8984 H   0  0  0  0  0  0  0  0  0  0  0  0
   -0.0761   -1.3844    0.9646 H   0  0  0  0  0  0  0  0  0  0  0  0
    0.7310   -0.1589   -0.0485 H   0  0  0  0  0  0  0  0  0  0  0  0
   -0.1317   -1.3128   -0.7834 H   0  0  0  0  0  0  0  0  0  0  0  0
  1  2  1  0  0  0  0
  1  5  1  0  0  0  0
  2  8  1  0  0  0  0
  3  1  1  0  0  0  0
  4  1  1  0  0  0  0
  6  2  1  0  0  0  0
  6  9  1  0  0  0  0
  6 10  1  0  0  0  0
  7  2  1  0  0  0  0
  9 12  1  0  0  0  0
 11  6  1  0  0  0  0
 13  9  1  0  0  0  0
 14  9  1  0  0  0  0
M  END
$$$$
