14
butane_opt
C  -3.958051   0.274856   0.034387
C  -2.689489  -0.633672   0.029662
H  -4.823806  -0.297653  -0.026583
H  -3.975050   0.814594  -0.811191
H  -4.043978   1.031100   0.953449
C  -1.398933   0.181922  -0.014161
H  -2.765650  -1.300980  -0.825810
H  -2.676700  -1.281311   0.912271
C  -0.150740  -0.680585   0.048154
H  -1.430525   0.768471   0.791829
H  -1.363889   0.830731  -0.933425
H  -0.188293  -1.282055   0.948569
H   0.764174  -0.072670   0.065955
H  -0.156261  -1.382904  -0.808193
