14
butane_opt
C  -3.942610   0.267531   0.039694
C  -2.694938  -0.612565   0.017547
H  -4.878734  -0.329324   0.020688
H  -3.955642   0.881928  -0.853132
H  -3.957484   0.995972   0.921033
C  -1.405803   0.167057  -0.002576
H  -2.697307  -1.387288  -0.868251
H  -2.712237  -1.186224   0.864407
C  -0.165637  -0.685179   0.049281
H  -1.335989   0.831862   0.844833
H  -1.361621   0.835813  -0.923348
H  -0.167528  -1.384607   1.010830
H   0.724702  -0.095326  -0.074764
H  -0.170463  -1.277172  -0.736936
