14
butane_opt
C  -3.955868   0.276692  -0.007173
C  -2.690382  -0.638889   0.053272
H  -4.874128  -0.341874   0.012304
H  -4.003725   0.891654  -0.907811
H  -4.013473   0.935976   0.819908
C  -1.400278   0.187233   0.054051
H  -2.641144  -1.252401  -0.757545
H  -2.783074  -1.277929   0.942098
C  -0.157807  -0.684775   0.005819
H  -1.353294   0.905998   0.915278
H  -1.395152   0.780205  -0.801981
H  -0.083479  -1.374453   0.935229
H   0.765174  -0.096144  -0.154110
H  -0.189037  -1.326202  -0.828965
