butane_opt
 OpenBabel08242015413D

 14 13  0  0  0  0  0  0  0  0999 V2000
   -3.9411    0.2537    0.0286 C   0  0  0  0  0  0  0  0  0  0  0  0
   -2.7085   -0.5933    0.0318 C   0  0  0  0  0  0  0  0  0  0  0  0
   -4.8565   -0.3501   -0.0573 H   0  0  0  0  0  0  0  0  0  0  0  0
   -3.9275    0.7396   -0.7758 H   0  0  0  0  0  0  0  0  0  0  0  0
   -3.9695    1.0111    0.9706 H   0  0  0  0  0  0  0  0  0  0  0  0
   -1.4042    0.1919   -0.0183 C   0  0  0  0  0  0  0  0  0  0  0  0
   -2.7195   -1.2674   -0.8218 H   0  0  0  0  0  0  0  0  0  0  0  0
   -2.7099   -1.2380    0.9572 H   0  0  0  0  0  0  0  0  0  0  0  0
   -0.1618   -0.7050    0.0502 C   0  0  0  0  0  0  0  0  0  0  0  0
   -1.3546    0.8644    0.8254 H   0  0  0  0  0  0  0  0  0  0  0  0
   -1.4200    0.8335   -0.9352 H   0  0  0  0  0  0  0  0  0  0  0  0
   -0.1540   -1.3507    0.9516 H   0  0  0  0  0  0  0  0  0  0  0  0
    0.7581   -0.1105    0.0054 H   0  0  0  0  0  0  0  0  0  0  0  0
   -0.0785   -1.3734   -0.7751 H   0  0  0  0  0  0  0  0  0  0  0  0
  1  2  1  0  0  0  0
  1  5  1  0  0  0  0
  2  8  1  0  0  0  0
  3  1  1  0  0  0  0
  4  1  1  0  0  0  0
  6  2  1  0  0  0  0
  6  9  1  0  0  0  0
  6 10  1  0  0  0  0
  7  2  1  0  0  0  0
  9 12  1  0  0  0  0
 11  6  1  0  0  0  0
 13  9  1  0  0  0  0
 14  9  1  0  0  0  0
M  END
$$$$
