14
butane_opt
C  -3.932896   0.275935  -0.022916
C  -2.690320  -0.626108   0.098312
H  -4.831776  -0.332353  -0.063887
H  -3.898965   0.869278  -0.890072
H  -4.092075   0.978155   0.854120
C  -1.396363   0.171036   0.038200
H  -2.672146  -1.319211  -0.770767
H  -2.736583  -1.250762   1.011898
C  -0.183132  -0.684354  -0.007976
H  -1.333647   0.848832   0.908011
H  -1.415152   0.822149  -0.853966
H  -0.163935  -1.254156   0.857536
H   0.728263  -0.088081   0.024034
H  -0.171071  -1.388020  -0.900756
