14
butane_opt
C  -3.962170   0.276912   0.035922
C  -2.705241  -0.627513   0.028959
H  -4.857681  -0.311458  -0.065953
H  -3.936485   0.791047  -0.790715
H  -4.066392   1.076909   0.974535
C  -1.390914   0.172512  -0.013643
H  -2.667651  -1.325815  -0.800740
H  -2.706055  -1.255149   0.913336
C  -0.153736  -0.677376   0.048576
H  -1.355664   0.778912   0.789479
H  -1.342342   0.824178  -0.929095
H  -0.169946  -1.358163   0.966005
H   0.758090  -0.088459   0.011747
H  -0.136381  -1.334166  -0.805221
