14
butane_opt
C  -3.947686   0.260951   0.054676
C  -2.709639  -0.616221  -0.012264
H  -4.865119  -0.343958   0.193397
H  -4.069170   0.949933  -0.893157
H  -3.870788   0.907743   0.883832
C  -1.410308   0.193167  -0.017783
H  -2.724059  -1.348292  -0.895955
H  -2.721772  -1.195762   0.859198
C  -0.148357  -0.702234   0.069276
H  -1.428246   0.863800   0.839763
H  -1.345319   0.821767  -0.934889
H  -0.095685  -1.337867   0.984808
H   0.814651  -0.087385   0.042791
H  -0.129340  -1.319588  -0.764531
