butane_opt
 OpenBabel08242015413D

 14 13  0  0  0  0  0  0  0  0999 V2000
   -3.9272    0.2521   -0.0072 C   0  0  0  0  0  0  0  0  0  0  0  0
   -2.7093   -0.5969    0.0566 C   0  0  0  0  0  0  0  0  0  0  0  0
   -4.8352   -0.3564    0.0061 H   0  0  0  0  0  0  0  0  0  0  0  0
   -3.9102    0.8758   -0.9418 H   0  0  0  0  0  0  0  0  0  0  0  0
   -3.9423    0.9288    0.8431 H   0  0  0  0  0  0  0  0  0  0  0  0
   -1.4086    0.1926    0.0472 C   0  0  0  0  0  0  0  0  0  0  0  0
   -2.7354   -1.3006   -0.7912 H   0  0  0  0  0  0  0  0  0  0  0  0
   -2.7401   -1.2472    0.9559 H   0  0  0  0  0  0  0  0  0  0  0  0
   -0.1586   -0.7034    0.0046 C   0  0  0  0  0  0  0  0  0  0  0  0
   -1.3732    0.9473    0.9478 H   0  0  0  0  0  0  0  0  0  0  0  0
   -1.4825    0.7826   -0.8045 H   0  0  0  0  0  0  0  0  0  0  0  0
   -0.0866   -1.4113    0.9461 H   0  0  0  0  0  0  0  0  0  0  0  0
    0.7170   -0.1435   -0.1411 H   0  0  0  0  0  0  0  0  0  0  0  0
   -0.1869   -1.2763   -0.7869 H   0  0  0  0  0  0  0  0  0  0  0  0
  1  3  1  0  0  0  0
  1  2  1  0  0  0  0
  1  5  1  0  0  0  0
  2  8  1  0  0  0  0
  4  1  1  0  0  0  0
  6  2  1  0  0  0  0
  6 10  1  0  0  0  0
  7  2  1  0  0  0  0
  9  6  1  0  0  0  0
  9 12  1  0  0  0  0
 11  6  1  0  0  0  0
 13  9  1  0  0  0  0
 14  9  1  0  0  0  0
M  END
$$$$
