14
butane_opt
C  -3.944343   0.251506   0.014553
C  -2.702042  -0.611254   0.027519
H  -4.865671  -0.359058   0.156198
H  -4.049835   0.998577  -0.958739
H  -3.904863   0.819571   0.803189
C  -1.404364   0.206696   0.026184
H  -2.740496  -1.260213  -0.797919
H  -2.732866  -1.264296   0.939682
C  -0.149054  -0.704468   0.023480
H  -1.456172   0.907002   0.925373
H  -1.397656   0.821544  -0.854099
H  -0.098003  -1.280984   0.886135
H   0.748446  -0.134652   0.057637
H  -0.123026  -1.427686  -0.841571
