butane_opt
 OpenBabel08242015413D

 14 13  0  0  0  0  0  0  0  0999 V2000
   -3.9451    0.2502   -0.0000 C   0  0  0  0  0  0  0  0  0  0  0  0
   -2.7011   -0.6037    0.0424 C   0  0  0  0  0  0  0  0  0  0  0  0
   -4.8496   -0.3462    0.0106 H   0  0  0  0  0  0  0  0  0  0  0  0
   -4.0009    0.8926   -0.9016 H   0  0  0  0  0  0  0  0  0  0  0  0
   -3.9480    0.9313    0.8731 H   0  0  0  0  0  0  0  0  0  0  0  0
   -1.4136    0.1998    0.0484 C   0  0  0  0  0  0  0  0  0  0  0  0
   -2.6922   -1.2991   -0.8160 H   0  0  0  0  0  0  0  0  0  0  0  0
   -2.7611   -1.2093    0.9524 H   0  0  0  0  0  0  0  0  0  0  0  0
   -0.1500   -0.7063    0.0118 C   0  0  0  0  0  0  0  0  0  0  0  0
   -1.4035    0.8528    0.8863 H   0  0  0  0  0  0  0  0  0  0  0  0
   -1.3860    0.8085   -0.8315 H   0  0  0  0  0  0  0  0  0  0  0  0
   -0.0446   -1.4064    0.9481 H   0  0  0  0  0  0  0  0  0  0  0  0
    0.7846   -0.0997   -0.1261 H   0  0  0  0  0  0  0  0  0  0  0  0
   -0.1980   -1.2701   -0.7815 H   0  0  0  0  0  0  0  0  0  0  0  0
  1  3  1  0  0  0  0
  1  2  1  0  0  0  0
  1  5  1  0  0  0  0
  2  6  1  0  0  0  0
  2  8  1  0  0  0  0
  4  1  1  0  0  0  0
  6 10  1  0  0  0  0
  7  2  1  0  0  0  0
  9  6  1  0  0  0  0
  9 12  1  0  0  0  0
 11  6  1  0  0  0  0
 13  9  1  0  0  0  0
 14  9  1  0  0  0  0
M  END
$$$$
