butane_opt
 OpenBabel08242015413D

 14 13  0  0  0  0  0  0  0  0999 V2000
   -3.9372    0.2629   -0.0087 C   0  0  0  0  0  0  0  0  0  0  0  0
   -2.7082   -0.6235    0.0631 C   0  0  0  0  0  0  0  0  0  0  0  0
   -4.8595   -0.3308   -0.0319 H   0  0  0  0  0  0  0  0  0  0  0  0
   -3.9100    0.9065   -0.9536 H   0  0  0  0  0  0  0  0  0  0  0  0
   -4.0449    0.9016    0.8282 H   0  0  0  0  0  0  0  0  0  0  0  0
   -1.4074    0.1987    0.0538 C   0  0  0  0  0  0  0  0  0  0  0  0
   -2.7033   -1.2684   -0.7783 H   0  0  0  0  0  0  0  0  0  0  0  0
   -2.7461   -1.2941    0.9920 H   0  0  0  0  0  0  0  0  0  0  0  0
   -0.1462   -0.6959   -0.0035 C   0  0  0  0  0  0  0  0  0  0  0  0
   -1.3750    0.9661    0.9483 H   0  0  0  0  0  0  0  0  0  0  0  0
   -1.4729    0.7570   -0.7945 H   0  0  0  0  0  0  0  0  0  0  0  0
   -0.0434   -1.3829    0.9203 H   0  0  0  0  0  0  0  0  0  0  0  0
    0.7428   -0.1396   -0.1079 H   0  0  0  0  0  0  0  0  0  0  0  0
   -0.2182   -1.2939   -0.8282 H   0  0  0  0  0  0  0  0  0  0  0  0
  1  2  1  0  0  0  0
  1  5  1  0  0  0  0
  2  8  1  0  0  0  0
  3  1  1  0  0  0  0
  4  1  1  0  0  0  0
  6  2  1  0  0  0  0
  6 10  1  0  0  0  0
  7  2  1  0  0  0  0
  9  6  1  0  0  0  0
  9 12  1  0  0  0  0
 11  6  1  0  0  0  0
 13  9  1  0  0  0  0
 14  9  1  0  0  0  0
M  END
$$$$
