14
butane_opt
C  -3.941498   0.280216   0.047338
C  -2.689950  -0.633920   0.016904
H  -4.838266  -0.312316  -0.091155
H  -3.948340   0.777309  -0.780503
H  -3.982073   1.017109   0.948785
C  -1.390141   0.181526  -0.011678
H  -2.716566  -1.312357  -0.851493
H  -2.669809  -1.240911   0.894433
C  -0.188611  -0.686124   0.058783
H  -1.417290   0.784663   0.768934
H  -1.370362   0.868361  -0.961023
H  -0.128457  -1.352388   0.977174
H   0.741464  -0.064009  -0.016461
H  -0.179837  -1.334156  -0.773449
