14
butane_opt
C  -3.945131   0.271036  -0.008315
C  -2.693696  -0.629457   0.062065
H  -4.837288  -0.328355   0.058890
H  -4.016313   0.997465  -0.979448
H  -3.968755   0.865674   0.785445
C  -1.405076   0.171161   0.045053
H  -2.649500  -1.275601  -0.765363
H  -2.686848  -1.269741   0.964909
C  -0.173359  -0.680475   0.005176
H  -1.317049   0.941813   0.941593
H  -1.410373   0.760022  -0.810123
H  -0.097770  -1.275513   0.889126
H   0.740606  -0.083924  -0.029747
H  -0.173634  -1.391274  -0.876726
