14
butane_opt
C  -3.954664   0.271137  -0.014842
C  -2.699219  -0.624263   0.082730
H  -4.860333  -0.307140  -0.065502
H  -3.902628   0.876735  -0.896797
H  -4.093378   0.998026   0.882259
C  -1.396914   0.171039   0.028115
H  -2.772605  -1.260630  -0.750601
H  -2.722634  -1.300084   1.015169
C  -0.152924  -0.687061   0.005030
H  -1.345015   0.898983   0.896883
H  -1.416631   0.773394  -0.843710
H  -0.109434  -1.252822   0.847999
H   0.784665  -0.067381   0.007183
H  -0.144772  -1.398014  -0.866585
