butane_opt
 OpenBabel08242015413D

 14 13  0  0  0  0  0  0  0  0999 V2000
   -3.9507    0.2532   -0.0025 C   0  0  0  0  0  0  0  0  0  0  0  0
   -2.7060   -0.5973    0.0784 C   0  0  0  0  0  0  0  0  0  0  0  0
   -4.8918   -0.3696   -0.0150 H   0  0  0  0  0  0  0  0  0  0  0  0
   -3.9092    0.8753   -0.9099 H   0  0  0  0  0  0  0  0  0  0  0  0
   -4.0334    0.8761    0.8294 H   0  0  0  0  0  0  0  0  0  0  0  0
   -1.3980    0.1966    0.0181 C   0  0  0  0  0  0  0  0  0  0  0  0
   -2.6973   -1.2456   -0.7614 H   0  0  0  0  0  0  0  0  0  0  0  0
   -2.7495   -1.2551    1.0087 H   0  0  0  0  0  0  0  0  0  0  0  0
   -0.1507   -0.6999    0.0081 C   0  0  0  0  0  0  0  0  0  0  0  0
   -1.3817    0.9158    0.8872 H   0  0  0  0  0  0  0  0  0  0  0  0
   -1.4123    0.8082   -0.8675 H   0  0  0  0  0  0  0  0  0  0  0  0
   -0.1087   -1.2671    0.8423 H   0  0  0  0  0  0  0  0  0  0  0  0
    0.7339   -0.1391    0.1162 H   0  0  0  0  0  0  0  0  0  0  0  0
   -0.1000   -1.5157   -0.9232 H   0  0  0  0  0  0  0  0  0  0  0  0
  1  2  1  0  0  0  0
  1  5  1  0  0  0  0
  2  8  1  0  0  0  0
  3  1  1  0  0  0  0
  4  1  1  0  0  0  0
  6  2  1  0  0  0  0
  6 10  1  0  0  0  0
  7  2  1  0  0  0  0
  9  6  1  0  0  0  0
  9 13  1  0  0  0  0
  9 12  1  0  0  0  0
 11  6  1  0  0  0  0
 14  9  1  0  0  0  0
M  END
$$$$
