14
butane_opt
C  -3.940698   0.256705  -0.004941
C  -2.698909  -0.600254   0.070952
H  -4.870190  -0.366699   0.022485
H  -3.933080   0.928019  -0.941239
H  -3.948259   0.850066   0.844942
C  -1.411700   0.183626   0.025776
H  -2.664588  -1.203822  -0.732293
H  -2.689717  -1.287644   1.004214
C  -0.161614  -0.693023   0.006357
H  -1.427499   0.872314   0.879851
H  -1.381407   0.803122  -0.859409
H  -0.171245  -1.199128   0.828006
H   0.743480  -0.106559   0.151446
H  -0.121261  -1.533719  -0.961681
