butane_opt
 OpenBabel08242015413D

 14 13  0  0  0  0  0  0  0  0999 V2000
   -3.9527    0.2647   -0.0057 C   0  0  0  0  0  0  0  0  0  0  0  0
   -2.7048   -0.6187    0.0717 C   0  0  0  0  0  0  0  0  0  0  0  0
   -4.8600   -0.3312    0.0401 H   0  0  0  0  0  0  0  0  0  0  0  0
   -3.9414    0.9062   -0.9422 H   0  0  0  0  0  0  0  0  0  0  0  0
   -4.0111    0.9046    0.8520 H   0  0  0  0  0  0  0  0  0  0  0  0
   -1.4127    0.1912    0.0225 C   0  0  0  0  0  0  0  0  0  0  0  0
   -2.6751   -1.2240   -0.7480 H   0  0  0  0  0  0  0  0  0  0  0  0
   -2.7674   -1.3045    1.0082 H   0  0  0  0  0  0  0  0  0  0  0  0
   -0.1348   -0.6946    0.0014 C   0  0  0  0  0  0  0  0  0  0  0  0
   -1.3432    0.8729    0.8920 H   0  0  0  0  0  0  0  0  0  0  0  0
   -1.4397    0.7677   -0.8270 H   0  0  0  0  0  0  0  0  0  0  0  0
   -0.2071   -1.2116    0.8617 H   0  0  0  0  0  0  0  0  0  0  0  0
    0.7822   -0.0913    0.1359 H   0  0  0  0  0  0  0  0  0  0  0  0
   -0.0967   -1.4729   -0.9170 H   0  0  0  0  0  0  0  0  0  0  0  0
  1  3  1  0  0  0  0
  1  2  1  0  0  0  0
  1  5  1  0  0  0  0
  2  8  1  0  0  0  0
  4  1  1  0  0  0  0
  6  2  1  0  0  0  0
  6 10  1  0  0  0  0
  7  2  1  0  0  0  0
  9  6  1  0  0  0  0
  9 13  1  0  0  0  0
  9 12  1  0  0  0  0
 11  6  1  0  0  0  0
 14  9  1  0  0  0  0
M  END
$$$$
