14
butane_opt
C  -3.931143   0.266604  -0.007032
C  -2.690514  -0.627550   0.062704
H  -4.833415  -0.344471  -0.019903
H  -3.924941   0.894959  -0.918435
H  -3.998688   0.968738   0.855130
C  -1.413340   0.187289   0.039087
H  -2.704257  -1.286362  -0.765821
H  -2.738271  -1.262738   0.954407
C  -0.165557  -0.689487   0.004882
H  -1.355976   0.918824   0.916848
H  -1.495376   0.762470  -0.812106
H  -0.103235  -1.364454   0.937990
H   0.756578  -0.099707  -0.067874
H  -0.220567  -1.296303  -0.821206
