14
butane_opt
C  -3.941274   0.268813   0.032163
C  -2.684793  -0.624294   0.030636
H  -4.835955  -0.322308   0.084876
H  -4.012114   0.877022  -0.836794
H  -3.961979   0.954768   0.889215
C  -1.408804   0.175046  -0.022776
H  -2.698579  -1.291299  -0.796145
H  -2.659755  -1.253196   0.908953
C  -0.179810  -0.684950   0.050370
H  -1.420137   0.824731   0.823343
H  -1.292653   0.856816  -0.936381
H  -0.178064  -1.196875   0.884855
H   0.737476  -0.102241   0.175776
H  -0.123850  -1.438617  -0.853047
