butane_opt
 OpenBabel08242015413D

 14 13  0  0  0  0  0  0  0  0999 V2000
   -3.9443    0.2634    0.0094 C   0  0  0  0  0  0  0  0  0  0  0  0
   -2.7144   -0.6226    0.0639 C   0  0  0  0  0  0  0  0  0  0  0  0
   -4.8108   -0.2837    0.0346 H   0  0  0  0  0  0  0  0  0  0  0  0
   -3.9288    0.9547   -0.9477 H   0  0  0  0  0  0  0  0  0  0  0  0
   -4.0054    0.8933    0.8167 H   0  0  0  0  0  0  0  0  0  0  0  0
   -1.4004    0.1824    0.0174 C   0  0  0  0  0  0  0  0  0  0  0  0
   -2.7274   -1.2950   -0.7784 H   0  0  0  0  0  0  0  0  0  0  0  0
   -2.7008   -1.2477    0.9643 H   0  0  0  0  0  0  0  0  0  0  0  0
   -0.1571   -0.6924    0.0101 C   0  0  0  0  0  0  0  0  0  0  0  0
   -1.4008    0.8825    0.9118 H   0  0  0  0  0  0  0  0  0  0  0  0
   -1.3575    0.8268   -0.8907 H   0  0  0  0  0  0  0  0  0  0  0  0
   -0.1508   -1.2190    0.8630 H   0  0  0  0  0  0  0  0  0  0  0  0
    0.7633   -0.1157    0.1370 H   0  0  0  0  0  0  0  0  0  0  0  0
   -0.1164   -1.4351   -0.8965 H   0  0  0  0  0  0  0  0  0  0  0  0
  1  3  1  0  0  0  0
  1  2  1  0  0  0  0
  1  5  1  0  0  0  0
  2  8  1  0  0  0  0
  4  1  1  0  0  0  0
  6  2  1  0  0  0  0
  6 10  1  0  0  0  0
  7  2  1  0  0  0  0
  9  6  1  0  0  0  0
  9 13  1  0  0  0  0
  9 12  1  0  0  0  0
 11  6  1  0  0  0  0
 14  9  1  0  0  0  0
M  END
$$$$
