butane_opt
 OpenBabel08242015413D

 14 13  0  0  0  0  0  0  0  0999 V2000
   -3.9254    0.2513    0.0303 C   0  0  0  0  0  0  0  0  0  0  0  0
   -2.6989   -0.6004    0.0386 C   0  0  0  0  0  0  0  0  0  0  0  0
   -4.8398   -0.3238   -0.0613 H   0  0  0  0  0  0  0  0  0  0  0  0
   -3.9267    0.7745   -0.8146 H   0  0  0  0  0  0  0  0  0  0  0  0
   -3.9841    1.0140    0.9334 H   0  0  0  0  0  0  0  0  0  0  0  0
   -1.4112    0.1939   -0.0151 C   0  0  0  0  0  0  0  0  0  0  0  0
   -2.7743   -1.2981   -0.8146 H   0  0  0  0  0  0  0  0  0  0  0  0
   -2.7318   -1.2392    0.9352 H   0  0  0  0  0  0  0  0  0  0  0  0
   -0.1631   -0.7002    0.0496 C   0  0  0  0  0  0  0  0  0  0  0  0
   -1.3909    0.8459    0.8123 H   0  0  0  0  0  0  0  0  0  0  0  0
   -1.4236    0.8802   -0.9408 H   0  0  0  0  0  0  0  0  0  0  0  0
   -0.1381   -1.3214    0.9602 H   0  0  0  0  0  0  0  0  0  0  0  0
    0.7379   -0.1393    0.0509 H   0  0  0  0  0  0  0  0  0  0  0  0
   -0.1646   -1.4073   -0.8506 H   0  0  0  0  0  0  0  0  0  0  0  0
  1  2  1  0  0  0  0
  1  5  1  0  0  0  0
  2  8  1  0  0  0  0
  3  1  1  0  0  0  0
  4  1  1  0  0  0  0
  6  2  1  0  0  0  0
  6  9  1  0  0  0  0
  6 10  1  0  0  0  0
  7  2  1  0  0  0  0
  9 13  1  0  0  0  0
  9 12  1  0  0  0  0
 11  6  1  0  0  0  0
 14  9  1  0  0  0  0
M  END
$$$$
