butane_opt
 OpenBabel08242015413D

 14 13  0  0  0  0  0  0  0  0999 V2000
   -3.9379    0.2624   -0.0169 C   0  0  0  0  0  0  0  0  0  0  0  0
   -2.6928   -0.6010    0.0726 C   0  0  0  0  0  0  0  0  0  0  0  0
   -4.8563   -0.3489   -0.0066 H   0  0  0  0  0  0  0  0  0  0  0  0
   -3.8908    0.8668   -0.9106 H   0  0  0  0  0  0  0  0  0  0  0  0
   -3.9688    0.8745    0.8010 H   0  0  0  0  0  0  0  0  0  0  0  0
   -1.4147    0.1820    0.0558 C   0  0  0  0  0  0  0  0  0  0  0  0
   -2.6984   -1.2966   -0.7713 H   0  0  0  0  0  0  0  0  0  0  0  0
   -2.7398   -1.2329    0.9454 H   0  0  0  0  0  0  0  0  0  0  0  0
   -0.1666   -0.6944    0.0027 C   0  0  0  0  0  0  0  0  0  0  0  0
   -1.4212    0.8863    0.9125 H   0  0  0  0  0  0  0  0  0  0  0  0
   -1.4033    0.7653   -0.8124 H   0  0  0  0  0  0  0  0  0  0  0  0
   -0.0211   -1.3321    0.9077 H   0  0  0  0  0  0  0  0  0  0  0  0
    0.7216   -0.0934   -0.1578 H   0  0  0  0  0  0  0  0  0  0  0  0
   -0.2104   -1.3440   -0.8412 H   0  0  0  0  0  0  0  0  0  0  0  0
  1  3  1  0  0  0  0
  1  2  1  0  0  0  0
  1  5  1  0  0  0  0
  2  8  1  0  0  0  0
  4  1  1  0  0  0  0
  6  2  1  0  0  0  0
  6 10  1  0  0  0  0
  7  2  1  0  0  0  0
  9  6  1  0  0  0  0
  9 12  1  0  0  0  0
 11  6  1  0  0  0  0
 13  9  1  0  0  0  0
 14  9  1  0  0  0  0
M  END
$$$$
