butane_opt
 OpenBabel08242015413D

 14 13  0  0  0  0  0  0  0  0999 V2000
   -3.9562    0.2576    0.0004 C   0  0  0  0  0  0  0  0  0  0  0  0
   -2.7008   -0.6151    0.0772 C   0  0  0  0  0  0  0  0  0  0  0  0
   -4.8662   -0.2994   -0.0028 H   0  0  0  0  0  0  0  0  0  0  0  0
   -3.9095    0.9274   -0.9569 H   0  0  0  0  0  0  0  0  0  0  0  0
   -4.0338    0.9360    0.8630 H   0  0  0  0  0  0  0  0  0  0  0  0
   -1.3980    0.1870    0.0204 C   0  0  0  0  0  0  0  0  0  0  0  0
   -2.6931   -1.3018   -0.7719 H   0  0  0  0  0  0  0  0  0  0  0  0
   -2.7693   -1.2405    0.9795 H   0  0  0  0  0  0  0  0  0  0  0  0
   -0.1572   -0.6959    0.0063 C   0  0  0  0  0  0  0  0  0  0  0  0
   -1.3100    0.8686    0.8736 H   0  0  0  0  0  0  0  0  0  0  0  0
   -1.3801    0.8384   -0.8641 H   0  0  0  0  0  0  0  0  0  0  0  0
   -0.1547   -1.2238    0.8588 H   0  0  0  0  0  0  0  0  0  0  0  0
    0.7397   -0.1195    0.1071 H   0  0  0  0  0  0  0  0  0  0  0  0
   -0.0945   -1.4655   -0.9033 H   0  0  0  0  0  0  0  0  0  0  0  0
  1  2  1  0  0  0  0
  1  5  1  0  0  0  0
  2  8  1  0  0  0  0
  3  1  1  0  0  0  0
  4  1  1  0  0  0  0
  6  2  1  0  0  0  0
  6 10  1  0  0  0  0
  7  2  1  0  0  0  0
  9  6  1  0  0  0  0
  9 13  1  0  0  0  0
  9 12  1  0  0  0  0
 11  6  1  0  0  0  0
 14  9  1  0  0  0  0
M  END
$$$$
