14
butane_opt
C  -3.950063   0.251245   0.028806
C  -2.702225  -0.605835   0.035326
H  -4.866849  -0.353033  -0.067482
H  -3.938506   0.755262  -0.816871
H  -3.996535   1.023812   0.975477
C  -1.413814   0.199619  -0.011043
H  -2.717678  -1.276529  -0.832518
H  -2.731385  -1.210201   0.920072
C  -0.138754  -0.706957   0.044302
H  -1.383498   0.902699   0.871294
H  -1.401241   0.853806  -0.915822
H  -0.167123  -1.419509   0.984019
H   0.770668  -0.117323  -0.053148
H  -0.121274  -1.296564  -0.775101
