14
butane_opt
C  -3.934760   0.257060  -0.004187
C  -2.694704  -0.599351   0.076322
H  -4.887755  -0.359794  -0.112382
H  -3.872750   0.766323  -0.868084
H  -4.021553   0.953535   0.857613
C  -1.412355   0.196566   0.027886
H  -2.717779  -1.218471  -0.749645
H  -2.753270  -1.277703   1.020072
C  -0.155900  -0.708203   0.005840
H  -1.419762   0.895648   0.889881
H  -1.433548   0.794658  -0.858379
H  -0.146394  -1.293745   0.895086
H   0.756292  -0.097289  -0.024224
H  -0.148530  -1.398223  -0.880716
