14
butane_opt
C  -3.931957   0.264675  -0.002176
C  -2.702926  -0.604561   0.069631
H  -4.904514  -0.378929   0.058343
H  -3.928118   0.916671  -0.935028
H  -3.947699   0.845895   0.789664
C  -1.408643   0.190799   0.027430
H  -2.694336  -1.257055  -0.772837
H  -2.724239  -1.271900   1.003714
C  -0.162908  -0.699760   0.011908
H  -1.349978   0.842437   0.856505
H  -1.465665   0.798024  -0.858817
H  -0.191901  -1.168741   0.799361
H   0.720855  -0.116253   0.129364
H  -0.055763  -1.504365  -0.930275
