butane_opt
 OpenBabel08242015413D

 14 13  0  0  0  0  0  0  0  0999 V2000
   -3.9395    0.2693    0.0469 C   0  0  0  0  0  0  0  0  0  0  0  0
   -2.6883   -0.6313   -0.0011 C   0  0  0  0  0  0  0  0  0  0  0  0
   -4.8153   -0.2941    0.0163 H   0  0  0  0  0  0  0  0  0  0  0  0
   -3.9803    0.8652   -0.8243 H   0  0  0  0  0  0  0  0  0  0  0  0
   -3.9450    1.0211    0.9448 H   0  0  0  0  0  0  0  0  0  0  0  0
   -1.4141    0.1711   -0.0045 C   0  0  0  0  0  0  0  0  0  0  0  0
   -2.7355   -1.3593   -0.8601 H   0  0  0  0  0  0  0  0  0  0  0  0
   -2.7058   -1.2107    0.8524 H   0  0  0  0  0  0  0  0  0  0  0  0
   -0.1678   -0.6792    0.0681 C   0  0  0  0  0  0  0  0  0  0  0  0
   -1.4393    0.8450    0.8346 H   0  0  0  0  0  0  0  0  0  0  0  0
   -1.3471    0.8582   -0.9474 H   0  0  0  0  0  0  0  0  0  0  0  0
   -0.1047   -1.4135    1.0191 H   0  0  0  0  0  0  0  0  0  0  0  0
    0.7668   -0.0802   -0.1394 H   0  0  0  0  0  0  0  0  0  0  0  0
   -0.2128   -1.2505   -0.7587 H   0  0  0  0  0  0  0  0  0  0  0  0
  1  5  1  0  0  0  0
  2  1  1  0  0  0  0
  2  8  1  0  0  0  0
  3  1  1  0  0  0  0
  4  1  1  0  0  0  0
  6  2  1  0  0  0  0
  6  9  1  0  0  0  0
  6 10  1  0  0  0  0
  7  2  1  0  0  0  0
  9 12  1  0  0  0  0
 11  6  1  0  0  0  0
 13  9  1  0  0  0  0
 14  9  1  0  0  0  0
M  END
$$$$
