14
butane_opt
C  -3.963479   0.270823   0.010434
C  -2.701554  -0.621731   0.050054
H  -4.866626  -0.306566   0.089385
H  -4.004305   0.919566  -0.902218
H  -4.017102   0.926086   0.890316
C  -1.389662   0.168928  -0.002473
H  -2.659606  -1.255340  -0.765725
H  -2.702500  -1.294404   0.986146
C  -0.160680  -0.687148   0.032248
H  -1.376982   0.876682   0.866435
H  -1.343052   0.796376  -0.912206
H  -0.160749  -1.166372   0.847168
H   0.776369  -0.049584   0.157057
H  -0.086276  -1.489331  -0.912252
