butane_opt
 OpenBabel08242015413D

 14 13  0  0  0  0  0  0  0  0999 V2000
   -3.9327    0.2590    0.0452 C   0  0  0  0  0  0  0  0  0  0  0  0
   -2.6993   -0.6080    0.0110 C   0  0  0  0  0  0  0  0  0  0  0  0
   -4.8277   -0.3538    0.0980 H   0  0  0  0  0  0  0  0  0  0  0  0
   -3.9324    0.8213   -0.8004 H   0  0  0  0  0  0  0  0  0  0  0  0
   -3.8985    0.9596    0.9412 H   0  0  0  0  0  0  0  0  0  0  0  0
   -1.4088    0.1930   -0.0302 C   0  0  0  0  0  0  0  0  0  0  0  0
   -2.7972   -1.2947   -0.8798 H   0  0  0  0  0  0  0  0  0  0  0  0
   -2.6943   -1.2062    0.8767 H   0  0  0  0  0  0  0  0  0  0  0  0
   -0.1670   -0.7065    0.0702 C   0  0  0  0  0  0  0  0  0  0  0  0
   -1.4583    0.8528    0.8000 H   0  0  0  0  0  0  0  0  0  0  0  0
   -1.3667    0.8891   -0.9771 H   0  0  0  0  0  0  0  0  0  0  0  0
   -0.1822   -1.3009    0.9415 H   0  0  0  0  0  0  0  0  0  0  0  0
    0.7359   -0.1107    0.0886 H   0  0  0  0  0  0  0  0  0  0  0  0
   -0.1099   -1.3814   -0.7996 H   0  0  0  0  0  0  0  0  0  0  0  0
  1  3  1  0  0  0  0
  1  5  1  0  0  0  0
  2  1  1  0  0  0  0
  2  8  1  0  0  0  0
  4  1  1  0  0  0  0
  6  2  1  0  0  0  0
  6  9  1  0  0  0  0
  6 10  1  0  0  0  0
  7  2  1  0  0  0  0
  9 13  1  0  0  0  0
  9 12  1  0  0  0  0
 11  6  1  0  0  0  0
 14  9  1  0  0  0  0
M  END
$$$$
