butane_opt
 OpenBabel08242015413D

 14 13  0  0  0  0  0  0  0  0999 V2000
   -3.9667    0.2714    0.0268 C   0  0  0  0  0  0  0  0  0  0  0  0
   -2.6988   -0.6199    0.0146 C   0  0  0  0  0  0  0  0  0  0  0  0
   -4.8587   -0.3010    0.1033 H   0  0  0  0  0  0  0  0  0  0  0  0
   -4.0919    0.8936   -0.8262 H   0  0  0  0  0  0  0  0  0  0  0  0
   -3.9014    0.9029    0.8633 H   0  0  0  0  0  0  0  0  0  0  0  0
   -1.3859    0.1746    0.0006 C   0  0  0  0  0  0  0  0  0  0  0  0
   -2.7050   -1.3139   -0.8251 H   0  0  0  0  0  0  0  0  0  0  0  0
   -2.7028   -1.2265    0.9107 H   0  0  0  0  0  0  0  0  0  0  0  0
   -0.1607   -0.6863    0.0440 C   0  0  0  0  0  0  0  0  0  0  0  0
   -1.4266    0.8634    0.8587 H   0  0  0  0  0  0  0  0  0  0  0  0
   -1.3538    0.7740   -0.8757 H   0  0  0  0  0  0  0  0  0  0  0  0
   -0.1191   -1.3419    0.9665 H   0  0  0  0  0  0  0  0  0  0  0  0
    0.7703   -0.0780    0.0040 H   0  0  0  0  0  0  0  0  0  0  0  0
   -0.1000   -1.3137   -0.7792 H   0  0  0  0  0  0  0  0  0  0  0  0
  1  3  1  0  0  0  0
  1  5  1  0  0  0  0
  2  1  1  0  0  0  0
  2  8  1  0  0  0  0
  4  1  1  0  0  0  0
  6  2  1  0  0  0  0
  6  9  1  0  0  0  0
  6 10  1  0  0  0  0
  7  2  1  0  0  0  0
  9 12  1  0  0  0  0
 11  6  1  0  0  0  0
 13  9  1  0  0  0  0
 14  9  1  0  0  0  0
M  END
$$$$
