butane_opt
 OpenBabel08242015413D

 14 13  0  0  0  0  0  0  0  0999 V2000
   -3.9325    0.2552   -0.0111 C   0  0  0  0  0  0  0  0  0  0  0  0
   -2.7019   -0.6090    0.0841 C   0  0  0  0  0  0  0  0  0  0  0  0
   -4.8619   -0.3807    0.0580 H   0  0  0  0  0  0  0  0  0  0  0  0
   -3.9317    0.8840   -0.9265 H   0  0  0  0  0  0  0  0  0  0  0  0
   -3.9469    0.8748    0.8267 H   0  0  0  0  0  0  0  0  0  0  0  0
   -1.4199    0.2066    0.0214 C   0  0  0  0  0  0  0  0  0  0  0  0
   -2.6736   -1.2664   -0.7733 H   0  0  0  0  0  0  0  0  0  0  0  0
   -2.7168   -1.2382    0.9870 H   0  0  0  0  0  0  0  0  0  0  0  0
   -0.1581   -0.7037    0.0086 C   0  0  0  0  0  0  0  0  0  0  0  0
   -1.3893    0.8642    0.8669 H   0  0  0  0  0  0  0  0  0  0  0  0
   -1.4034    0.8323   -0.8563 H   0  0  0  0  0  0  0  0  0  0  0  0
   -0.1812   -1.1791    0.8091 H   0  0  0  0  0  0  0  0  0  0  0  0
    0.7030   -0.1775    0.1374 H   0  0  0  0  0  0  0  0  0  0  0  0
   -0.0606   -1.4874   -0.9424 H   0  0  0  0  0  0  0  0  0  0  0  0
  1  3  1  0  0  0  0
  1  2  1  0  0  0  0
  1  5  1  0  0  0  0
  2  8  1  0  0  0  0
  4  1  1  0  0  0  0
  6  2  1  0  0  0  0
  6 10  1  0  0  0  0
  7  2  1  0  0  0  0
  9  6  1  0  0  0  0
  9 13  1  0  0  0  0
  9 12  1  0  0  0  0
 11  6  1  0  0  0  0
 14  9  1  0  0  0  0
M  END
$$$$
