butane_opt
 OpenBabel08242015413D

 14 13  0  0  0  0  0  0  0  0999 V2000
   -3.9525    0.2483    0.0373 C   0  0  0  0  0  0  0  0  0  0  0  0
   -2.7122   -0.5947    0.0197 C   0  0  0  0  0  0  0  0  0  0  0  0
   -4.8615   -0.3199   -0.0793 H   0  0  0  0  0  0  0  0  0  0  0  0
   -3.9496    0.7340   -0.7733 H   0  0  0  0  0  0  0  0  0  0  0  0
   -3.9525    1.0634    1.0378 H   0  0  0  0  0  0  0  0  0  0  0  0
   -1.4045    0.1953   -0.0222 C   0  0  0  0  0  0  0  0  0  0  0  0
   -2.7484   -1.2698   -0.8281 H   0  0  0  0  0  0  0  0  0  0  0  0
   -2.7578   -1.2480    0.9356 H   0  0  0  0  0  0  0  0  0  0  0  0
   -0.1430   -0.7068    0.0545 C   0  0  0  0  0  0  0  0  0  0  0  0
   -1.4073    0.8393    0.8072 H   0  0  0  0  0  0  0  0  0  0  0  0
   -1.3452    0.8848   -0.9294 H   0  0  0  0  0  0  0  0  0  0  0  0
   -0.1552   -1.4038    0.9951 H   0  0  0  0  0  0  0  0  0  0  0  0
    0.7864   -0.1189   -0.0123 H   0  0  0  0  0  0  0  0  0  0  0  0
   -0.0824   -1.3403   -0.7723 H   0  0  0  0  0  0  0  0  0  0  0  0
  1  5  1  0  0  0  0
  2  1  1  0  0  0  0
  2  8  1  0  0  0  0
  3  1  1  0  0  0  0
  4  1  1  0  0  0  0
  6  2  1  0  0  0  0
  6  9  1  0  0  0  0
  6 10  1  0  0  0  0
  7  2  1  0  0  0  0
  9 12  1  0  0  0  0
 11  6  1  0  0  0  0
 13  9  1  0  0  0  0
 14  9  1  0  0  0  0
M  END
$$$$
