14
butane_opt
C  -3.948839   0.253422   0.040082
C  -2.706210  -0.604486   0.011098
H  -4.881121  -0.353671  -0.015349
H  -3.955196   0.847199  -0.865625
H  -3.936636   0.978680   0.954638
C  -1.402199   0.198576  -0.001816
H  -2.731981  -1.269093  -0.842183
H  -2.700185  -1.222933   0.865997
C  -0.155188  -0.706500   0.049814
H  -1.345489   0.886739   0.855013
H  -1.381168   0.784314  -0.870181
H  -0.111849  -1.442107   1.025474
H   0.717696  -0.129416  -0.103205
H  -0.138266  -1.247384  -0.740085
