14
butane_opt
C  -3.937500   0.264696   0.046620
C  -2.693131  -0.615956   0.012593
H  -4.851869  -0.295404  -0.008963
H  -3.966744   0.811019  -0.819440
H  -3.992950   0.992337   0.930905
C  -1.402463   0.167814  -0.011578
H  -2.726518  -1.292148  -0.852578
H  -2.675583  -1.190853   0.873559
C  -0.163011  -0.686481   0.048412
H  -1.451623   0.860676   0.828122
H  -1.382662   0.804158  -0.920927
H  -0.181479  -1.401291   1.016855
H   0.748954  -0.084530  -0.014236
H  -0.186121  -1.240989  -0.729152
