butane_opt
 OpenBabel08242015413D

 14 13  0  0  0  0  0  0  0  0999 V2000
   -3.9451    0.2721    0.0292 C   0  0  0  0  0  0  0  0  0  0  0  0
   -2.7051   -0.6292    0.0149 C   0  0  0  0  0  0  0  0  0  0  0  0
   -4.8077   -0.2787    0.0434 H   0  0  0  0  0  0  0  0  0  0  0  0
   -4.0401    0.8460   -0.8119 H   0  0  0  0  0  0  0  0  0  0  0  0
   -3.9088    1.0008    0.9347 H   0  0  0  0  0  0  0  0  0  0  0  0
   -1.3935    0.1780   -0.0050 C   0  0  0  0  0  0  0  0  0  0  0  0
   -2.7280   -1.3320   -0.8586 H   0  0  0  0  0  0  0  0  0  0  0  0
   -2.7342   -1.2491    0.9346 H   0  0  0  0  0  0  0  0  0  0  0  0
   -0.1601   -0.6855    0.0484 C   0  0  0  0  0  0  0  0  0  0  0  0
   -1.4370    0.8520    0.8431 H   0  0  0  0  0  0  0  0  0  0  0  0
   -1.3711    0.8123   -0.8969 H   0  0  0  0  0  0  0  0  0  0  0  0
   -0.1317   -1.3745    0.9999 H   0  0  0  0  0  0  0  0  0  0  0  0
    0.7324   -0.0814   -0.0263 H   0  0  0  0  0  0  0  0  0  0  0  0
   -0.1608   -1.2852   -0.7639 H   0  0  0  0  0  0  0  0  0  0  0  0
  1  3  1  0  0  0  0
  1  5  1  0  0  0  0
  2  1  1  0  0  0  0
  2  8  1  0  0  0  0
  4  1  1  0  0  0  0
  6  2  1  0  0  0  0
  6  9  1  0  0  0  0
  6 10  1  0  0  0  0
  7  2  1  0  0  0  0
  9 12  1  0  0  0  0
 11  6  1  0  0  0  0
 13  9  1  0  0  0  0
 14  9  1  0  0  0  0
M  END
$$$$
