14
butane_opt
C  -3.939487   0.275475  -0.008123
C  -2.680939  -0.633234   0.083447
H  -4.865501  -0.299923  -0.131544
H  -3.919538   0.866021  -0.897710
H  -4.060786   0.943601   0.857238
C  -1.412545   0.179035   0.031428
H  -2.636481  -1.245101  -0.741339
H  -2.710382  -1.327817   1.028746
C  -0.178280  -0.680462  -0.003250
H  -1.316947   0.894784   0.914741
H  -1.391124   0.759531  -0.830575
H  -0.163662  -1.283336   0.883664
H   0.752801  -0.062807   0.017280
H  -0.176077  -1.410667  -0.906261
