butane_opt
 OpenBabel08242015413D

 14 13  0  0  0  0  0  0  0  0999 V2000
   -3.9442    0.2797   -0.0039 C   0  0  0  0  0  0  0  0  0  0  0  0
   -2.6903   -0.6313    0.0761 C   0  0  0  0  0  0  0  0  0  0  0  0
   -4.8428   -0.2910   -0.0955 H   0  0  0  0  0  0  0  0  0  0  0  0
   -3.8600    0.8106   -0.8576 H   0  0  0  0  0  0  0  0  0  0  0  0
   -4.0576    0.9976    0.8686 H   0  0  0  0  0  0  0  0  0  0  0  0
   -1.4070    0.1686    0.0163 C   0  0  0  0  0  0  0  0  0  0  0  0
   -2.6882   -1.2709   -0.7277 H   0  0  0  0  0  0  0  0  0  0  0  0
   -2.7404   -1.2761    0.9976 H   0  0  0  0  0  0  0  0  0  0  0  0
   -0.1644   -0.6826    0.0118 C   0  0  0  0  0  0  0  0  0  0  0  0
   -1.3815    0.8902    0.9167 H   0  0  0  0  0  0  0  0  0  0  0  0
   -1.4271    0.7403   -0.8517 H   0  0  0  0  0  0  0  0  0  0  0  0
   -0.1604   -1.2944    0.8779 H   0  0  0  0  0  0  0  0  0  0  0  0
    0.7787   -0.0366   -0.0241 H   0  0  0  0  0  0  0  0  0  0  0  0
   -0.1867   -1.3468   -0.8594 H   0  0  0  0  0  0  0  0  0  0  0  0
  1  2  1  0  0  0  0
  1  5  1  0  0  0  0
  2  8  1  0  0  0  0
  3  1  1  0  0  0  0
  4  1  1  0  0  0  0
  6  2  1  0  0  0  0
  6 10  1  0  0  0  0
  7  2  1  0  0  0  0
  9  6  1  0  0  0  0
  9 12  1  0  0  0  0
 11  6  1  0  0  0  0
 13  9  1  0  0  0  0
 14  9  1  0  0  0  0
M  END
$$$$
