butane_opt
 OpenBabel08242015413D

 14 13  0  0  0  0  0  0  0  0999 V2000
   -3.9504    0.2726    0.0419 C   0  0  0  0  0  0  0  0  0  0  0  0
   -2.6942   -0.6386    0.0143 C   0  0  0  0  0  0  0  0  0  0  0  0
   -4.8331   -0.2566    0.0913 H   0  0  0  0  0  0  0  0  0  0  0  0
   -4.0051    0.8464   -0.8239 H   0  0  0  0  0  0  0  0  0  0  0  0
   -3.9558    0.9956    0.9535 H   0  0  0  0  0  0  0  0  0  0  0  0
   -1.3920    0.1776   -0.0239 C   0  0  0  0  0  0  0  0  0  0  0  0
   -2.7054   -1.2721   -0.8372 H   0  0  0  0  0  0  0  0  0  0  0  0
   -2.7209   -1.2594    0.8969 H   0  0  0  0  0  0  0  0  0  0  0  0
   -0.1663   -0.6857    0.0568 C   0  0  0  0  0  0  0  0  0  0  0  0
   -1.4451    0.8249    0.7974 H   0  0  0  0  0  0  0  0  0  0  0  0
   -1.3785    0.8427   -0.9533 H   0  0  0  0  0  0  0  0  0  0  0  0
   -0.2315   -1.2645    0.9237 H   0  0  0  0  0  0  0  0  0  0  0  0
    0.7640   -0.0712    0.1362 H   0  0  0  0  0  0  0  0  0  0  0  0
   -0.0855   -1.3651   -0.8060 H   0  0  0  0  0  0  0  0  0  0  0  0
  1  3  1  0  0  0  0
  1  5  1  0  0  0  0
  2  1  1  0  0  0  0
  2  8  1  0  0  0  0
  4  1  1  0  0  0  0
  6  2  1  0  0  0  0
  6  9  1  0  0  0  0
  6 10  1  0  0  0  0
  7  2  1  0  0  0  0
  9 13  1  0  0  0  0
  9 12  1  0  0  0  0
 11  6  1  0  0  0  0
 14  9  1  0  0  0  0
M  END
$$$$
