butane_opt
 OpenBabel08242015413D

 14 13  0  0  0  0  0  0  0  0999 V2000
   -3.9578    0.2695   -0.0026 C   0  0  0  0  0  0  0  0  0  0  0  0
   -2.7003   -0.6256    0.0447 C   0  0  0  0  0  0  0  0  0  0  0  0
   -4.8695   -0.2990    0.1242 H   0  0  0  0  0  0  0  0  0  0  0  0
   -4.0067    0.9551   -0.9570 H   0  0  0  0  0  0  0  0  0  0  0  0
   -3.9568    0.8398    0.7817 H   0  0  0  0  0  0  0  0  0  0  0  0
   -1.4037    0.1828    0.0442 C   0  0  0  0  0  0  0  0  0  0  0  0
   -2.7586   -1.2584   -0.7828 H   0  0  0  0  0  0  0  0  0  0  0  0
   -2.7045   -1.2587    0.9668 H   0  0  0  0  0  0  0  0  0  0  0  0
   -0.1387   -0.6901    0.0143 C   0  0  0  0  0  0  0  0  0  0  0  0
   -1.4012    0.8844    0.9061 H   0  0  0  0  0  0  0  0  0  0  0  0
   -1.4051    0.7741   -0.8098 H   0  0  0  0  0  0  0  0  0  0  0  0
   -0.1296   -1.2685    0.8890 H   0  0  0  0  0  0  0  0  0  0  0  0
    0.7774   -0.0979   -0.0215 H   0  0  0  0  0  0  0  0  0  0  0  0
   -0.1637   -1.3817   -0.8830 H   0  0  0  0  0  0  0  0  0  0  0  0
  1  2  1  0  0  0  0
  1  3  1  0  0  0  0
  1  5  1  0  0  0  0
  2  8  1  0  0  0  0
  4  1  1  0  0  0  0
  6  2  1  0  0  0  0
  6 10  1  0  0  0  0
  7  2  1  0  0  0  0
  9  6  1  0  0  0  0
  9 12  1  0  0  0  0
 11  6  1  0  0  0  0
 13  9  1  0  0  0  0
 14  9  1  0  0  0  0
M  END
$$$$
