14
butane_opt
C  -3.947392   0.265572   0.011890
C  -2.701365  -0.617824   0.054553
H  -4.838071  -0.295240   0.019948
H  -3.953564   0.943758  -0.905387
H  -3.969262   0.893912   0.859174
C  -1.401728   0.179226   0.013349
H  -2.668448  -1.275919  -0.786401
H  -2.726280  -1.284128   0.988906
C  -0.160653  -0.692867   0.024324
H  -1.408700   0.840088   0.854046
H  -1.377164   0.840621  -0.904065
H  -0.192376  -1.208521   0.844395
H   0.794988  -0.027898   0.127752
H  -0.155646  -1.504794  -0.925976
