butane_opt
 OpenBabel08242015413D

 14 13  0  0  0  0  0  0  0  0999 V2000
   -3.9235    0.2557   -0.0098 C   0  0  0  0  0  0  0  0  0  0  0  0
   -2.7021   -0.6051    0.0708 C   0  0  0  0  0  0  0  0  0  0  0  0
   -4.8475   -0.3371   -0.0350 H   0  0  0  0  0  0  0  0  0  0  0  0
   -3.9357    0.9076   -0.9588 H   0  0  0  0  0  0  0  0  0  0  0  0
   -3.9853    0.8560    0.8026 H   0  0  0  0  0  0  0  0  0  0  0  0
   -1.4152    0.1949    0.0462 C   0  0  0  0  0  0  0  0  0  0  0  0
   -2.7066   -1.2780   -0.7560 H   0  0  0  0  0  0  0  0  0  0  0  0
   -2.7664   -1.2472    0.9929 H   0  0  0  0  0  0  0  0  0  0  0  0
   -0.1570   -0.6962    0.0022 C   0  0  0  0  0  0  0  0  0  0  0  0
   -1.4169    0.9407    0.9334 H   0  0  0  0  0  0  0  0  0  0  0  0
   -1.4507    0.7370   -0.7764 H   0  0  0  0  0  0  0  0  0  0  0  0
   -0.0607   -1.3448    0.8853 H   0  0  0  0  0  0  0  0  0  0  0  0
    0.7267   -0.1486   -0.1007 H   0  0  0  0  0  0  0  0  0  0  0  0
   -0.2010   -1.3478   -0.8680 H   0  0  0  0  0  0  0  0  0  0  0  0
  1  2  1  0  0  0  0
  1  5  1  0  0  0  0
  2  8  1  0  0  0  0
  3  1  1  0  0  0  0
  4  1  1  0  0  0  0
  6  2  1  0  0  0  0
  6 10  1  0  0  0  0
  7  2  1  0  0  0  0
  9  6  1  0  0  0  0
  9 12  1  0  0  0  0
 11  6  1  0  0  0  0
 13  9  1  0  0  0  0
 14  9  1  0  0  0  0
M  END
$$$$
