butane_opt
 OpenBabel08242015413D

 14 13  0  0  0  0  0  0  0  0999 V2000
   -3.9474    0.2597    0.0544 C   0  0  0  0  0  0  0  0  0  0  0  0
   -2.7047   -0.6149   -0.0014 C   0  0  0  0  0  0  0  0  0  0  0  0
   -4.8730   -0.3437    0.1111 H   0  0  0  0  0  0  0  0  0  0  0  0
   -3.9859    0.8558   -0.8376 H   0  0  0  0  0  0  0  0  0  0  0  0
   -3.8778    0.9291    0.9141 H   0  0  0  0  0  0  0  0  0  0  0  0
   -1.4105    0.2007   -0.0320 C   0  0  0  0  0  0  0  0  0  0  0  0
   -2.7110   -1.3139   -0.8748 H   0  0  0  0  0  0  0  0  0  0  0  0
   -2.6761   -1.2239    0.8591 H   0  0  0  0  0  0  0  0  0  0  0  0
   -0.1570   -0.6985    0.0674 C   0  0  0  0  0  0  0  0  0  0  0  0
   -1.4104    0.9076    0.8078 H   0  0  0  0  0  0  0  0  0  0  0  0
   -1.3809    0.7963   -0.8970 H   0  0  0  0  0  0  0  0  0  0  0  0
   -0.1237   -1.4006    1.0174 H   0  0  0  0  0  0  0  0  0  0  0  0
    0.7316   -0.0925    0.0511 H   0  0  0  0  0  0  0  0  0  0  0  0
   -0.0850   -1.3513   -0.7623 H   0  0  0  0  0  0  0  0  0  0  0  0
  1  3  1  0  0  0  0
  1  5  1  0  0  0  0
  2  1  1  0  0  0  0
  2  8  1  0  0  0  0
  4  1  1  0  0  0  0
  6  2  1  0  0  0  0
  6  9  1  0  0  0  0
  6 10  1  0  0  0  0
  7  2  1  0  0  0  0
  9 12  1  0  0  0  0
 11  6  1  0  0  0  0
 13  9  1  0  0  0  0
 14  9  1  0  0  0  0
M  END
$$$$
