butane_opt
 OpenBabel08242015413D

 14 13  0  0  0  0  0  0  0  0999 V2000
   -3.9630    0.2761    0.0355 C   0  0  0  0  0  0  0  0  0  0  0  0
   -2.6935   -0.6239   -0.0014 C   0  0  0  0  0  0  0  0  0  0  0  0
   -4.8954   -0.3639    0.1414 H   0  0  0  0  0  0  0  0  0  0  0  0
   -4.0875    0.9003   -0.8723 H   0  0  0  0  0  0  0  0  0  0  0  0
   -3.9098    0.9351    0.8805 H   0  0  0  0  0  0  0  0  0  0  0  0
   -1.3915    0.1820   -0.0011 C   0  0  0  0  0  0  0  0  0  0  0  0
   -2.7477   -1.3221   -0.8410 H   0  0  0  0  0  0  0  0  0  0  0  0
   -2.6527   -1.2706    0.8847 H   0  0  0  0  0  0  0  0  0  0  0  0
   -0.1534   -0.6860    0.0597 C   0  0  0  0  0  0  0  0  0  0  0  0
   -1.4209    0.8639    0.8440 H   0  0  0  0  0  0  0  0  0  0  0  0
   -1.3668    0.7725   -0.8712 H   0  0  0  0  0  0  0  0  0  0  0  0
   -0.1261   -1.3541    0.9877 H   0  0  0  0  0  0  0  0  0  0  0  0
    0.7546   -0.0831   -0.0546 H   0  0  0  0  0  0  0  0  0  0  0  0
   -0.1531   -1.3207   -0.7773 H   0  0  0  0  0  0  0  0  0  0  0  0
  1  3  1  0  0  0  0
  1  5  1  0  0  0  0
  2  6  1  0  0  0  0
  2  1  1  0  0  0  0
  2  8  1  0  0  0  0
  4  1  1  0  0  0  0
  6  9  1  0  0  0  0
  6 10  1  0  0  0  0
  7  2  1  0  0  0  0
  9 12  1  0  0  0  0
 11  6  1  0  0  0  0
 13  9  1  0  0  0  0
 14  9  1  0  0  0  0
M  END
$$$$
