14
butane_opt
C  -3.943563   0.254754   0.054119
C  -2.700038  -0.601113  -0.013288
H  -4.837101  -0.354168   0.182787
H  -4.037537   0.944753  -0.857500
H  -3.897883   0.858756   0.884100
C  -1.405888   0.182514  -0.026889
H  -2.756287  -1.289878  -0.865704
H  -2.644477  -1.178081   0.842465
C  -0.155322  -0.697401   0.068326
H  -1.398636   0.897401   0.856340
H  -1.412811   0.767401  -0.910696
H  -0.175713  -1.351877   1.002713
H   0.753651  -0.112756   0.074228
H  -0.152157  -1.317776  -0.755365
