butane_opt
 OpenBabel08242015413D

 14 13  0  0  0  0  0  0  0  0999 V2000
   -3.9415    0.2759    0.0313 C   0  0  0  0  0  0  0  0  0  0  0  0
   -2.6901   -0.6312    0.0401 C   0  0  0  0  0  0  0  0  0  0  0  0
   -4.8740   -0.3161    0.0676 H   0  0  0  0  0  0  0  0  0  0  0  0
   -3.9778    0.9021   -0.8793 H   0  0  0  0  0  0  0  0  0  0  0  0
   -3.9430    0.9555    0.8815 H   0  0  0  0  0  0  0  0  0  0  0  0
   -1.3911    0.1743   -0.0215 C   0  0  0  0  0  0  0  0  0  0  0  0
   -2.7283   -1.2813   -0.8210 H   0  0  0  0  0  0  0  0  0  0  0  0
   -2.6735   -1.2730    0.9349 H   0  0  0  0  0  0  0  0  0  0  0  0
   -0.1866   -0.6871    0.0390 C   0  0  0  0  0  0  0  0  0  0  0  0
   -1.4092    0.9008    0.8588 H   0  0  0  0  0  0  0  0  0  0  0  0
   -1.3637    0.7996   -0.9249 H   0  0  0  0  0  0  0  0  0  0  0  0
   -0.2257   -1.2578    0.9019 H   0  0  0  0  0  0  0  0  0  0  0  0
    0.7593   -0.0466    0.1955 H   0  0  0  0  0  0  0  0  0  0  0  0
   -0.0825   -1.4399   -0.8475 H   0  0  0  0  0  0  0  0  0  0  0  0
  1  2  1  0  0  0  0
  1  3  1  0  0  0  0
  1  5  1  0  0  0  0
  2  8  1  0  0  0  0
  4  1  1  0  0  0  0
  6  9  1  0  0  0  0
  6  2  1  0  0  0  0
  6 10  1  0  0  0  0
  7  2  1  0  0  0  0
  9 13  1  0  0  0  0
  9 12  1  0  0  0  0
 11  6  1  0  0  0  0
 14  9  1  0  0  0  0
M  END
$$$$
