14
butane_opt
C  -3.935924   0.262429   0.040108
C  -2.699338  -0.606494  -0.002093
H  -4.907199  -0.373401   0.154661
H  -4.009253   0.906361  -0.858121
H  -3.875144   0.892704   0.868777
C  -1.398826   0.190148  -0.000090
H  -2.737160  -1.305129  -0.883334
H  -2.679198  -1.190936   0.881754
C  -0.172008  -0.703252   0.059456
H  -1.456390   0.860524   0.828462
H  -1.349533   0.823442  -0.903336
H  -0.131737  -1.361911   0.997982
H   0.764812  -0.080723  -0.048541
H  -0.164765  -1.361820  -0.774273
