butane_opt
 OpenBabel08242015413D

 14 13  0  0  0  0  0  0  0  0999 V2000
   -3.9524    0.2588   -0.0127 C   0  0  0  0  0  0  0  0  0  0  0  0
   -2.7150   -0.6093    0.0677 C   0  0  0  0  0  0  0  0  0  0  0  0
   -4.8414   -0.3385   -0.0176 H   0  0  0  0  0  0  0  0  0  0  0  0
   -3.9127    0.9347   -0.9538 H   0  0  0  0  0  0  0  0  0  0  0  0
   -3.9629    0.8618    0.7909 H   0  0  0  0  0  0  0  0  0  0  0  0
   -1.4100    0.1891    0.0600 C   0  0  0  0  0  0  0  0  0  0  0  0
   -2.7174   -1.2944   -0.7778 H   0  0  0  0  0  0  0  0  0  0  0  0
   -2.6880   -1.2494    0.9557 H   0  0  0  0  0  0  0  0  0  0  0  0
   -0.1414   -0.7028   -0.0082 C   0  0  0  0  0  0  0  0  0  0  0  0
   -1.3691    0.9336    0.9755 H   0  0  0  0  0  0  0  0  0  0  0  0
   -1.4308    0.8223   -0.8033 H   0  0  0  0  0  0  0  0  0  0  0  0
   -0.0646   -1.3548    0.9165 H   0  0  0  0  0  0  0  0  0  0  0  0
    0.7746   -0.1087   -0.1033 H   0  0  0  0  0  0  0  0  0  0  0  0
   -0.1887   -1.3068   -0.8337 H   0  0  0  0  0  0  0  0  0  0  0  0
  1  2  1  0  0  0  0
  1  5  1  0  0  0  0
  2  8  1  0  0  0  0
  3  1  1  0  0  0  0
  4  1  1  0  0  0  0
  6  2  1  0  0  0  0
  6 10  1  0  0  0  0
  7  2  1  0  0  0  0
  9  6  1  0  0  0  0
  9 12  1  0  0  0  0
 11  6  1  0  0  0  0
 13  9  1  0  0  0  0
 14  9  1  0  0  0  0
M  END
$$$$
