14
butane_opt
C  -3.949536   0.258958   0.000306
C  -2.718797  -0.603362   0.054459
H  -4.847995  -0.333450   0.085373
H  -3.963756   0.946716  -0.973760
H  -3.944286   0.827320   0.816081
C  -1.396934   0.191107   0.031213
H  -2.713714  -1.226219  -0.774587
H  -2.780721  -1.279282   0.994118
C  -0.143086  -0.701971   0.006591
H  -1.415673   0.898293   0.915204
H  -1.420950   0.762540  -0.803999
H  -0.085408  -1.250777   0.862800
H   0.752544  -0.120338   0.073437
H  -0.106476  -1.428452  -0.879493
