butane_opt
 OpenBabel08242015413D

 14 13  0  0  0  0  0  0  0  0999 V2000
   -3.9340    0.2695   -0.0066 C   0  0  0  0  0  0  0  0  0  0  0  0
   -2.6936   -0.6196    0.0511 C   0  0  0  0  0  0  0  0  0  0  0  0
   -4.8410   -0.3021    0.0708 H   0  0  0  0  0  0  0  0  0  0  0  0
   -4.0105    0.9063   -0.8937 H   0  0  0  0  0  0  0  0  0  0  0  0
   -3.9378    0.9156    0.8462 H   0  0  0  0  0  0  0  0  0  0  0  0
   -1.3929    0.1750    0.0343 C   0  0  0  0  0  0  0  0  0  0  0  0
   -2.6735   -1.2843   -0.7951 H   0  0  0  0  0  0  0  0  0  0  0  0
   -2.7427   -1.2431    0.9683 H   0  0  0  0  0  0  0  0  0  0  0  0
   -0.1838   -0.6894    0.0156 C   0  0  0  0  0  0  0  0  0  0  0  0
   -1.3918    0.8947    0.9101 H   0  0  0  0  0  0  0  0  0  0  0  0
   -1.4032    0.7389   -0.8206 H   0  0  0  0  0  0  0  0  0  0  0  0
   -0.1396   -1.3196    0.9179 H   0  0  0  0  0  0  0  0  0  0  0  0
    0.7399   -0.0926   -0.0775 H   0  0  0  0  0  0  0  0  0  0  0  0
   -0.1722   -1.3085   -0.8216 H   0  0  0  0  0  0  0  0  0  0  0  0
  1  2  1  0  0  0  0
  1  3  1  0  0  0  0
  1  5  1  0  0  0  0
  2  8  1  0  0  0  0
  4  1  1  0  0  0  0
  6  2  1  0  0  0  0
  6 10  1  0  0  0  0
  7  2  1  0  0  0  0
  9  6  1  0  0  0  0
  9 12  1  0  0  0  0
 11  6  1  0  0  0  0
 13  9  1  0  0  0  0
 14  9  1  0  0  0  0
M  END
$$$$
