butane_opt
 OpenBabel08242015413D

 14 13  0  0  0  0  0  0  0  0999 V2000
   -3.9593    0.2557    0.0419 C   0  0  0  0  0  0  0  0  0  0  0  0
   -2.7027   -0.6037    0.0155 C   0  0  0  0  0  0  0  0  0  0  0  0
   -4.8868   -0.3469    0.0744 H   0  0  0  0  0  0  0  0  0  0  0  0
   -3.9567    0.8414   -0.8175 H   0  0  0  0  0  0  0  0  0  0  0  0
   -3.9742    0.9443    0.9270 H   0  0  0  0  0  0  0  0  0  0  0  0
   -1.4051    0.1915   -0.0193 C   0  0  0  0  0  0  0  0  0  0  0  0
   -2.7601   -1.2742   -0.8323 H   0  0  0  0  0  0  0  0  0  0  0  0
   -2.6487   -1.2281    0.8992 H   0  0  0  0  0  0  0  0  0  0  0  0
   -0.1505   -0.7025    0.0598 C   0  0  0  0  0  0  0  0  0  0  0  0
   -1.4096    0.7921    0.7738 H   0  0  0  0  0  0  0  0  0  0  0  0
   -1.3418    0.8687   -0.9789 H   0  0  0  0  0  0  0  0  0  0  0  0
   -0.1408   -1.2292    0.9169 H   0  0  0  0  0  0  0  0  0  0  0  0
    0.7500   -0.1200    0.1393 H   0  0  0  0  0  0  0  0  0  0  0  0
   -0.0424   -1.4178   -0.8409 H   0  0  0  0  0  0  0  0  0  0  0  0
  1  3  1  0  0  0  0
  1  5  1  0  0  0  0
  2  1  1  0  0  0  0
  2  8  1  0  0  0  0
  4  1  1  0  0  0  0
  6  2  1  0  0  0  0
  6  9  1  0  0  0  0
  6 10  1  0  0  0  0
  7  2  1  0  0  0  0
  9 13  1  0  0  0  0
  9 12  1  0  0  0  0
 11  6  1  0  0  0  0
 14  9  1  0  0  0  0
M  END
$$$$
