14
butane_opt
C  -3.944550   0.263392   0.009681
C  -2.691365  -0.620039   0.058910
H  -4.835268  -0.272662   0.068417
H  -3.985141   0.893921  -0.897076
H  -3.945112   0.930904   0.877029
C  -1.409939   0.177989   0.006979
H  -2.667559  -1.287406  -0.793889
H  -2.720993  -1.227196   0.947692
C  -0.168113  -0.686995   0.025663
H  -1.395875   0.804903   0.811787
H  -1.372006   0.814717  -0.925047
H  -0.194359  -1.218803   0.868925
H   0.782791  -0.052052   0.184379
H  -0.129228  -1.467058  -0.920612
