14
butane_opt
C  -3.956121   0.262527   0.043285
C  -2.703520  -0.603854   0.017312
H  -4.881265  -0.325806   0.057655
H  -3.945332   0.809670  -0.805684
H  -3.977468   0.967195   0.920776
C  -1.399090   0.188120  -0.034597
H  -2.801434  -1.296612  -0.825131
H  -2.658174  -1.272102   0.931057
C  -0.156918  -0.699977   0.056312
H  -1.374671   0.860250   0.824929
H  -1.333114   0.831706  -0.934796
H  -0.195724  -1.297577   0.941245
H   0.756997  -0.091364   0.145917
H  -0.028186  -1.420526  -0.806632
