butane_opt
 OpenBabel08242015413D

 14 13  0  0  0  0  0  0  0  0999 V2000
   -3.9332    0.2656    0.0044 C   0  0  0  0  0  0  0  0  0  0  0  0
   -2.7038   -0.6235    0.0468 C   0  0  0  0  0  0  0  0  0  0  0  0
   -4.8319   -0.3248    0.1277 H   0  0  0  0  0  0  0  0  0  0  0  0
   -4.0323    0.9990   -0.9551 H   0  0  0  0  0  0  0  0  0  0  0  0
   -3.9648    0.8210    0.7711 H   0  0  0  0  0  0  0  0  0  0  0  0
   -1.4113    0.1812    0.0335 C   0  0  0  0  0  0  0  0  0  0  0  0
   -2.7239   -1.3220   -0.8235 H   0  0  0  0  0  0  0  0  0  0  0  0
   -2.6481   -1.2005    0.9297 H   0  0  0  0  0  0  0  0  0  0  0  0
   -0.1606   -0.6910    0.0175 C   0  0  0  0  0  0  0  0  0  0  0  0
   -1.3895    0.9023    0.9201 H   0  0  0  0  0  0  0  0  0  0  0  0
   -1.4007    0.7938   -0.8409 H   0  0  0  0  0  0  0  0  0  0  0  0
   -0.1025   -1.2759    0.9140 H   0  0  0  0  0  0  0  0  0  0  0  0
    0.7465   -0.0839    0.0048 H   0  0  0  0  0  0  0  0  0  0  0  0
   -0.1674   -1.3701   -0.8525 H   0  0  0  0  0  0  0  0  0  0  0  0
  1  2  1  0  0  0  0
  1  3  1  0  0  0  0
  1  5  1  0  0  0  0
  2  8  1  0  0  0  0
  4  1  1  0  0  0  0
  6  2  1  0  0  0  0
  6 10  1  0  0  0  0
  7  2  1  0  0  0  0
  9  6  1  0  0  0  0
  9 12  1  0  0  0  0
 11  6  1  0  0  0  0
 13  9  1  0  0  0  0
 14  9  1  0  0  0  0
M  END
$$$$
