butane_opt
 OpenBabel08242015413D

 14 13  0  0  0  0  0  0  0  0999 V2000
   -3.9567    0.2802   -0.0161 C   0  0  0  0  0  0  0  0  0  0  0  0
   -2.6952   -0.6234    0.0507 C   0  0  0  0  0  0  0  0  0  0  0  0
   -4.8714   -0.3243    0.1871 H   0  0  0  0  0  0  0  0  0  0  0  0
   -4.0045    0.9764   -0.9950 H   0  0  0  0  0  0  0  0  0  0  0  0
   -3.9200    0.8658    0.8027 H   0  0  0  0  0  0  0  0  0  0  0  0
   -1.3936    0.1675    0.0567 C   0  0  0  0  0  0  0  0  0  0  0  0
   -2.7160   -1.2605   -0.7764 H   0  0  0  0  0  0  0  0  0  0  0  0
   -2.7413   -1.2929    0.9768 H   0  0  0  0  0  0  0  0  0  0  0  0
   -0.1652   -0.6806    0.0028 C   0  0  0  0  0  0  0  0  0  0  0  0
   -1.3421    0.8528    0.9158 H   0  0  0  0  0  0  0  0  0  0  0  0
   -1.3924    0.7367   -0.8156 H   0  0  0  0  0  0  0  0  0  0  0  0
   -0.1153   -1.2654    0.8797 H   0  0  0  0  0  0  0  0  0  0  0  0
    0.7543   -0.0723    0.0130 H   0  0  0  0  0  0  0  0  0  0  0  0
   -0.1580   -1.3993   -0.8861 H   0  0  0  0  0  0  0  0  0  0  0  0
  1  2  1  0  0  0  0
  1  3  1  0  0  0  0
  1  5  1  0  0  0  0
  2  6  1  0  0  0  0
  2  8  1  0  0  0  0
  4  1  1  0  0  0  0
  6 10  1  0  0  0  0
  7  2  1  0  0  0  0
  9 13  1  0  0  0  0
  9  6  1  0  0  0  0
  9 12  1  0  0  0  0
 11  6  1  0  0  0  0
 14  9  1  0  0  0  0
M  END
$$$$
