14
butane_opt
C  -3.938470   0.248634   0.000867
C  -2.710641  -0.608763   0.048459
H  -4.846389  -0.328650   0.081307
H  -3.955545   0.962507  -0.952823
H  -3.928035   0.887644   0.845642
C  -1.409838   0.206930   0.030932
H  -2.746095  -1.236181  -0.768517
H  -2.747281  -1.303547   0.993649
C  -0.151222  -0.710985   0.020509
H  -1.380328   0.911958   0.905866
H  -1.405849   0.818779  -0.873456
H  -0.138776  -1.227676   0.851034
H   0.752146  -0.129750   0.037463
H  -0.101488  -1.457686  -0.909484
