butane_opt
 OpenBabel08242015413D

 14 13  0  0  0  0  0  0  0  0999 V2000
   -3.9610    0.2725    0.0293 C   0  0  0  0  0  0  0  0  0  0  0  0
   -2.6981   -0.6406    0.0132 C   0  0  0  0  0  0  0  0  0  0  0  0
   -4.8401   -0.2867    0.0508 H   0  0  0  0  0  0  0  0  0  0  0  0
   -4.0509    0.8233   -0.8208 H   0  0  0  0  0  0  0  0  0  0  0  0
   -3.9670    0.9862    0.9158 H   0  0  0  0  0  0  0  0  0  0  0  0
   -1.3934    0.1869    0.0060 C   0  0  0  0  0  0  0  0  0  0  0  0
   -2.6681   -1.2715   -0.8360 H   0  0  0  0  0  0  0  0  0  0  0  0
   -2.6874   -1.2595    0.8937 H   0  0  0  0  0  0  0  0  0  0  0  0
   -0.1532   -0.6871    0.0450 C   0  0  0  0  0  0  0  0  0  0  0  0
   -1.3897    0.8721    0.8580 H   0  0  0  0  0  0  0  0  0  0  0  0
   -1.3605    0.8291   -0.9025 H   0  0  0  0  0  0  0  0  0  0  0  0
   -0.1607   -1.3797    0.9858 H   0  0  0  0  0  0  0  0  0  0  0  0
    0.7225   -0.0942   -0.0637 H   0  0  0  0  0  0  0  0  0  0  0  0
   -0.1483   -1.2773   -0.7514 H   0  0  0  0  0  0  0  0  0  0  0  0
  1  3  1  0  0  0  0
  1  5  1  0  0  0  0
  2  1  1  0  0  0  0
  2  8  1  0  0  0  0
  4  1  1  0  0  0  0
  6  2  1  0  0  0  0
  6  9  1  0  0  0  0
  6 10  1  0  0  0  0
  7  2  1  0  0  0  0
  9 12  1  0  0  0  0
 11  6  1  0  0  0  0
 13  9  1  0  0  0  0
 14  9  1  0  0  0  0
M  END
$$$$
