14
butane_opt
C  -3.955943   0.251785   0.015781
C  -2.699944  -0.600177   0.028276
H  -4.886650  -0.358932   0.122925
H  -4.031301   0.975509  -0.916866
H  -3.904360   0.840157   0.834785
C  -1.406953   0.199946   0.026416
H  -2.714635  -1.301172  -0.847773
H  -2.705385  -1.262086   0.929669
C  -0.144431  -0.701204   0.028033
H  -1.410692   0.864974   0.881766
H  -1.332875   0.804504  -0.862565
H  -0.110816  -1.322043   0.939404
H   0.723718  -0.132579   0.012326
H  -0.151371  -1.387860  -0.852300
