14
butane_opt
C  -3.936292   0.256193   0.032606
C  -2.703918  -0.604508   0.014573
H  -4.877305  -0.338557   0.018836
H  -3.995264   0.844338  -0.823630
H  -3.915563   0.961859   0.928491
C  -1.397154   0.192464   0.009398
H  -2.683878  -1.367548  -0.895682
H  -2.753402  -1.177057   0.873871
C  -0.169635  -0.701060   0.051563
H  -1.402150   0.853376   0.839513
H  -1.386413   0.841864  -0.930388
H  -0.042787  -1.424139   1.022647
H   0.706580  -0.154610  -0.143138
H  -0.183628  -1.230682  -0.728800
