butane_opt
 OpenBabel08242015413D

 14 13  0  0  0  0  0  0  0  0999 V2000
   -3.9385    0.2757    0.0170 C   0  0  0  0  0  0  0  0  0  0  0  0
   -2.6869   -0.6205    0.0445 C   0  0  0  0  0  0  0  0  0  0  0  0
   -4.8586   -0.3240   -0.0614 H   0  0  0  0  0  0  0  0  0  0  0  0
   -3.9558    0.7893   -0.7958 H   0  0  0  0  0  0  0  0  0  0  0  0
   -4.0098    1.0660    0.9237 H   0  0  0  0  0  0  0  0  0  0  0  0
   -1.4054    0.1635   -0.0037 C   0  0  0  0  0  0  0  0  0  0  0  0
   -2.6783   -1.2902   -0.7866 H   0  0  0  0  0  0  0  0  0  0  0  0
   -2.7537   -1.2771    0.9464 H   0  0  0  0  0  0  0  0  0  0  0  0
   -0.1712   -0.6812    0.0351 C   0  0  0  0  0  0  0  0  0  0  0  0
   -1.3708    0.8466    0.8629 H   0  0  0  0  0  0  0  0  0  0  0  0
   -1.3850    0.7905   -0.8753 H   0  0  0  0  0  0  0  0  0  0  0  0
   -0.1584   -1.3645    0.9702 H   0  0  0  0  0  0  0  0  0  0  0  0
    0.7794   -0.0445   -0.0200 H   0  0  0  0  0  0  0  0  0  0  0  0
   -0.2130   -1.3128   -0.8170 H   0  0  0  0  0  0  0  0  0  0  0  0
  1  2  1  0  0  0  0
  1  5  1  0  0  0  0
  2  8  1  0  0  0  0
  3  1  1  0  0  0  0
  4  1  1  0  0  0  0
  6  9  1  0  0  0  0
  6  2  1  0  0  0  0
  6 10  1  0  0  0  0
  7  2  1  0  0  0  0
  9 12  1  0  0  0  0
 11  6  1  0  0  0  0
 13  9  1  0  0  0  0
 14  9  1  0  0  0  0
M  END
$$$$
