butane_opt
 OpenBabel08242015413D

 14 13  0  0  0  0  0  0  0  0999 V2000
   -3.9397    0.2728    0.0032 C   0  0  0  0  0  0  0  0  0  0  0  0
   -2.6970   -0.6263    0.0718 C   0  0  0  0  0  0  0  0  0  0  0  0
   -4.8346   -0.3219    0.0006 H   0  0  0  0  0  0  0  0  0  0  0  0
   -3.9243    0.9625   -0.9754 H   0  0  0  0  0  0  0  0  0  0  0  0
   -3.9534    0.9187    0.8407 H   0  0  0  0  0  0  0  0  0  0  0  0
   -1.4017    0.1718    0.0142 C   0  0  0  0  0  0  0  0  0  0  0  0
   -2.7456   -1.2700   -0.7740 H   0  0  0  0  0  0  0  0  0  0  0  0
   -2.6859   -1.3011    1.0068 H   0  0  0  0  0  0  0  0  0  0  0  0
   -0.1696   -0.6871    0.0154 C   0  0  0  0  0  0  0  0  0  0  0  0
   -1.3856    0.9036    0.8879 H   0  0  0  0  0  0  0  0  0  0  0  0
   -1.4514    0.7791   -0.8577 H   0  0  0  0  0  0  0  0  0  0  0  0
   -0.2085   -1.1696    0.8370 H   0  0  0  0  0  0  0  0  0  0  0  0
    0.7865   -0.0720    0.1247 H   0  0  0  0  0  0  0  0  0  0  0  0
   -0.1320   -1.4696   -0.9285 H   0  0  0  0  0  0  0  0  0  0  0  0
  1  2  1  0  0  0  0
  1  5  1  0  0  0  0
  2  8  1  0  0  0  0
  3  1  1  0  0  0  0
  4  1  1  0  0  0  0
  6  9  1  0  0  0  0
  6  2  1  0  0  0  0
  6 10  1  0  0  0  0
  7  2  1  0  0  0  0
  9 13  1  0  0  0  0
  9 12  1  0  0  0  0
 11  6  1  0  0  0  0
 14  9  1  0  0  0  0
M  END
$$$$
