14
butane_opt
C  -3.949062   0.275051  -0.009039
C  -2.686968  -0.620967   0.069747
H  -4.880616  -0.319114  -0.019558
H  -3.858526   0.881985  -0.919719
H  -4.015103   0.933507   0.804578
C  -1.400108   0.171931   0.045368
H  -2.681088  -1.327842  -0.791357
H  -2.680415  -1.258531   0.943575
C  -0.172270  -0.682405   0.009217
H  -1.369990   0.856672   0.916967
H  -1.456892   0.754493  -0.802347
H  -0.071020  -1.325572   0.895976
H   0.740175  -0.077282  -0.137872
H  -0.257345  -1.304510  -0.826356
