butane_opt
 OpenBabel08242015413D

 14 13  0  0  0  0  0  0  0  0999 V2000
   -3.9376    0.2706    0.0296 C   0  0  0  0  0  0  0  0  0  0  0  0
   -2.6925   -0.6242    0.0342 C   0  0  0  0  0  0  0  0  0  0  0  0
   -4.8478   -0.3391    0.0082 H   0  0  0  0  0  0  0  0  0  0  0  0
   -3.9839    0.8885   -0.8740 H   0  0  0  0  0  0  0  0  0  0  0  0
   -3.9373    0.9506    0.9068 H   0  0  0  0  0  0  0  0  0  0  0  0
   -1.4054    0.1783   -0.0126 C   0  0  0  0  0  0  0  0  0  0  0  0
   -2.6917   -1.2737   -0.7603 H   0  0  0  0  0  0  0  0  0  0  0  0
   -2.6932   -1.2824    0.9512 H   0  0  0  0  0  0  0  0  0  0  0  0
   -0.1790   -0.6833    0.0465 C   0  0  0  0  0  0  0  0  0  0  0  0
   -1.4241    0.8386    0.8227 H   0  0  0  0  0  0  0  0  0  0  0  0
   -1.3824    0.8107   -0.9139 H   0  0  0  0  0  0  0  0  0  0  0  0
   -0.1552   -1.2207    0.8587 H   0  0  0  0  0  0  0  0  0  0  0  0
    0.7322   -0.0874    0.1235 H   0  0  0  0  0  0  0  0  0  0  0  0
   -0.0748   -1.4499   -0.8703 H   0  0  0  0  0  0  0  0  0  0  0  0
  1  2  1  0  0  0  0
  1  5  1  0  0  0  0
  2  8  1  0  0  0  0
  3  1  1  0  0  0  0
  4  1  1  0  0  0  0
  6  2  1  0  0  0  0
  6  9  1  0  0  0  0
  6 10  1  0  0  0  0
  7  2  1  0  0  0  0
  9 13  1  0  0  0  0
  9 12  1  0  0  0  0
 11  6  1  0  0  0  0
 14  9  1  0  0  0  0
M  END
$$$$
