butane_opt
 OpenBabel08242015413D

 14 13  0  0  0  0  0  0  0  0999 V2000
   -3.9473    0.2523    0.0444 C   0  0  0  0  0  0  0  0  0  0  0  0
   -2.7081   -0.6174    0.0158 C   0  0  0  0  0  0  0  0  0  0  0  0
   -4.8331   -0.3299    0.0633 H   0  0  0  0  0  0  0  0  0  0  0  0
   -3.9586    0.8249   -0.8061 H   0  0  0  0  0  0  0  0  0  0  0  0
   -3.9474    0.9963    0.9494 H   0  0  0  0  0  0  0  0  0  0  0  0
   -1.4031    0.2094   -0.0382 C   0  0  0  0  0  0  0  0  0  0  0  0
   -2.7816   -1.2458   -0.8189 H   0  0  0  0  0  0  0  0  0  0  0  0
   -2.7486   -1.2138    0.8923 H   0  0  0  0  0  0  0  0  0  0  0  0
   -0.1459   -0.7103    0.0632 C   0  0  0  0  0  0  0  0  0  0  0  0
   -1.4040    0.8701    0.8181 H   0  0  0  0  0  0  0  0  0  0  0  0
   -1.3945    0.8466   -0.9312 H   0  0  0  0  0  0  0  0  0  0  0  0
   -0.1926   -1.3183    0.9607 H   0  0  0  0  0  0  0  0  0  0  0  0
    0.7413   -0.1163    0.1229 H   0  0  0  0  0  0  0  0  0  0  0  0
   -0.0498   -1.4020   -0.8271 H   0  0  0  0  0  0  0  0  0  0  0  0
  1  3  1  0  0  0  0
  1  5  1  0  0  0  0
  2  1  1  0  0  0  0
  2  8  1  0  0  0  0
  4  1  1  0  0  0  0
  6  2  1  0  0  0  0
  6  9  1  0  0  0  0
  6 10  1  0  0  0  0
  7  2  1  0  0  0  0
  9 13  1  0  0  0  0
  9 12  1  0  0  0  0
 11  6  1  0  0  0  0
 14  9  1  0  0  0  0
M  END
$$$$
