butane_opt
 OpenBabel08242015413D

 14 13  0  0  0  0  0  0  0  0999 V2000
   -3.9408    0.2699    0.0304 C   0  0  0  0  0  0  0  0  0  0  0  0
   -2.6920   -0.6124    0.0193 C   0  0  0  0  0  0  0  0  0  0  0  0
   -4.8555   -0.3106    0.0103 H   0  0  0  0  0  0  0  0  0  0  0  0
   -3.9612    0.8231   -0.8514 H   0  0  0  0  0  0  0  0  0  0  0  0
   -3.9771    0.9479    0.8912 H   0  0  0  0  0  0  0  0  0  0  0  0
   -1.4078    0.1709    0.0085 C   0  0  0  0  0  0  0  0  0  0  0  0
   -2.7513   -1.3121   -0.8602 H   0  0  0  0  0  0  0  0  0  0  0  0
   -2.6649   -1.2526    0.9019 H   0  0  0  0  0  0  0  0  0  0  0  0
   -0.1613   -0.6830    0.0371 C   0  0  0  0  0  0  0  0  0  0  0  0
   -1.4159    0.8838    0.9080 H   0  0  0  0  0  0  0  0  0  0  0  0
   -1.3914    0.7817   -0.8795 H   0  0  0  0  0  0  0  0  0  0  0  0
   -0.1288   -1.4425    1.0206 H   0  0  0  0  0  0  0  0  0  0  0  0
    0.7607   -0.1031   -0.0806 H   0  0  0  0  0  0  0  0  0  0  0  0
   -0.2196   -1.2245   -0.7488 H   0  0  0  0  0  0  0  0  0  0  0  0
  1  5  1  0  0  0  0
  2  1  1  0  0  0  0
  2  8  1  0  0  0  0
  3  1  1  0  0  0  0
  4  1  1  0  0  0  0
  6  2  1  0  0  0  0
  6  9  1  0  0  0  0
  6 10  1  0  0  0  0
  7  2  1  0  0  0  0
  9 12  1  0  0  0  0
 11  6  1  0  0  0  0
 13  9  1  0  0  0  0
 14  9  1  0  0  0  0
M  END
$$$$
