butane_opt
 OpenBabel08242015413D

 14 13  0  0  0  0  0  0  0  0999 V2000
   -3.9517    0.2686    0.0050 C   0  0  0  0  0  0  0  0  0  0  0  0
   -2.6960   -0.6216    0.0410 C   0  0  0  0  0  0  0  0  0  0  0  0
   -4.8749   -0.3008    0.1404 H   0  0  0  0  0  0  0  0  0  0  0  0
   -3.9765    0.9596   -0.9500 H   0  0  0  0  0  0  0  0  0  0  0  0
   -3.9311    0.8924    0.8305 H   0  0  0  0  0  0  0  0  0  0  0  0
   -1.4008    0.1671    0.0318 C   0  0  0  0  0  0  0  0  0  0  0  0
   -2.6956   -1.2891   -0.8059 H   0  0  0  0  0  0  0  0  0  0  0  0
   -2.6819   -1.2771    0.9169 H   0  0  0  0  0  0  0  0  0  0  0  0
   -0.1664   -0.6805    0.0141 C   0  0  0  0  0  0  0  0  0  0  0  0
   -1.3514    0.9153    0.9323 H   0  0  0  0  0  0  0  0  0  0  0  0
   -1.4170    0.7915   -0.8493 H   0  0  0  0  0  0  0  0  0  0  0  0
   -0.1626   -1.3238    0.9372 H   0  0  0  0  0  0  0  0  0  0  0  0
    0.7427   -0.0849    0.0169 H   0  0  0  0  0  0  0  0  0  0  0  0
   -0.1048   -1.3562   -0.8355 H   0  0  0  0  0  0  0  0  0  0  0  0
  1  2  1  0  0  0  0
  1  3  1  0  0  0  0
  1  5  1  0  0  0  0
  2  8  1  0  0  0  0
  4  1  1  0  0  0  0
  6  2  1  0  0  0  0
  6 10  1  0  0  0  0
  7  2  1  0  0  0  0
  9 13  1  0  0  0  0
  9  6  1  0  0  0  0
  9 12  1  0  0  0  0
 11  6  1  0  0  0  0
 14  9  1  0  0  0  0
M  END
$$$$
