14
butane_opt
C  -3.934819   0.261767   0.022059
C  -2.689934  -0.605274   0.038478
H  -4.871639  -0.363770  -0.079709
H  -3.965611   0.735251  -0.792504
H  -3.949441   1.034248   0.946884
C  -1.406561   0.190721  -0.001057
H  -2.717283  -1.273156  -0.795493
H  -2.747210  -1.260123   0.934763
C  -0.176000  -0.695627   0.035862
H  -1.398209   0.878803   0.836242
H  -1.365164   0.825952  -0.912484
H  -0.128107  -1.414716   0.993859
H   0.736884  -0.115634  -0.031494
H  -0.129283  -1.341580  -0.788656
