14
butane_opt
C  -3.931139   0.265844   0.017466
C  -2.694305  -0.627628   0.030154
H  -4.850618  -0.313568   0.105161
H  -4.044637   0.968552  -0.920436
H  -3.936094   0.869440   0.835057
C  -1.403794   0.188788   0.020051
H  -2.748872  -1.250564  -0.786860
H  -2.725655  -1.248424   0.934295
C  -0.166914  -0.696088   0.030874
H  -1.436149   0.884801   0.882632
H  -1.350166   0.806145  -0.888595
H  -0.166346  -1.269011   0.902494
H   0.757926  -0.088465   0.054935
H  -0.165702  -1.405605  -0.881442
