14
butane_opt
C  -3.956172   0.252656   0.028978
C  -2.711732  -0.598803   0.032245
H  -4.874689  -0.366272  -0.019360
H  -3.956772   0.840940  -0.857294
H  -3.923976   0.976945   0.952153
C  -1.394821   0.194720  -0.006239
H  -2.709151  -1.288058  -0.806907
H  -2.770280  -1.249716   0.937497
C  -0.146549  -0.704600   0.037530
H  -1.404171   0.886140   0.846920
H  -1.412299   0.845518  -0.923811
H  -0.127591  -1.326079   0.964822
H   0.738728  -0.149650   0.047376
H  -0.070080  -1.371630  -0.806309
