14
butane_opt
C  -3.948697   0.253622  -0.009936
C  -2.697211  -0.619337   0.064550
H  -4.877987  -0.346511   0.031728
H  -3.898904   0.924101  -0.986434
H  -4.016117   0.901689   0.829591
C  -1.402496   0.207266   0.055429
H  -2.691246  -1.259357  -0.775881
H  -2.708803  -1.244005   0.966230
C  -0.157413  -0.699712  -0.004334
H  -1.410532   0.944962   0.936297
H  -1.399069   0.762833  -0.808047
H  -0.078900  -1.370996   0.914458
H   0.716428  -0.150845  -0.097473
H  -0.177573  -1.340159  -0.839474
