butane_opt
 OpenBabel08242015413D

 14 13  0  0  0  0  0  0  0  0999 V2000
   -3.9582    0.2704   -0.0001 C   0  0  0  0  0  0  0  0  0  0  0  0
   -2.6917   -0.6324    0.0725 C   0  0  0  0  0  0  0  0  0  0  0  0
   -4.8329   -0.2974    0.0560 H   0  0  0  0  0  0  0  0  0  0  0  0
   -3.9947    0.9848   -0.9572 H   0  0  0  0  0  0  0  0  0  0  0  0
   -4.0424    0.9134    0.8246 H   0  0  0  0  0  0  0  0  0  0  0  0
   -1.3893    0.1752    0.0196 C   0  0  0  0  0  0  0  0  0  0  0  0
   -2.6973   -1.3196   -0.7569 H   0  0  0  0  0  0  0  0  0  0  0  0
   -2.7594   -1.2596    0.9709 H   0  0  0  0  0  0  0  0  0  0  0  0
   -0.1647   -0.6831    0.0112 C   0  0  0  0  0  0  0  0  0  0  0  0
   -1.3576    0.8667    0.8884 H   0  0  0  0  0  0  0  0  0  0  0  0
   -1.4162    0.8084   -0.8744 H   0  0  0  0  0  0  0  0  0  0  0  0
   -0.1871   -1.1637    0.8284 H   0  0  0  0  0  0  0  0  0  0  0  0
    0.7636   -0.0751    0.1143 H   0  0  0  0  0  0  0  0  0  0  0  0
   -0.0593   -1.4849   -0.9110 H   0  0  0  0  0  0  0  0  0  0  0  0
  1  3  1  0  0  0  0
  1  2  1  0  0  0  0
  1  5  1  0  0  0  0
  2  8  1  0  0  0  0
  4  1  1  0  0  0  0
  6  2  1  0  0  0  0
  6 10  1  0  0  0  0
  7  2  1  0  0  0  0
  9  6  1  0  0  0  0
  9 13  1  0  0  0  0
  9 12  1  0  0  0  0
 11  6  1  0  0  0  0
 14  9  1  0  0  0  0
M  END
$$$$
