butane_opt
 OpenBabel08242015413D

 14 13  0  0  0  0  0  0  0  0999 V2000
   -3.9550    0.2818    0.0410 C   0  0  0  0  0  0  0  0  0  0  0  0
   -2.6986   -0.6372    0.0060 C   0  0  0  0  0  0  0  0  0  0  0  0
   -4.8399   -0.2842    0.1158 H   0  0  0  0  0  0  0  0  0  0  0  0
   -3.9927    0.8678   -0.8450 H   0  0  0  0  0  0  0  0  0  0  0  0
   -3.9678    0.9521    0.8927 H   0  0  0  0  0  0  0  0  0  0  0  0
   -1.3956    0.1760   -0.0093 C   0  0  0  0  0  0  0  0  0  0  0  0
   -2.7730   -1.3257   -0.8719 H   0  0  0  0  0  0  0  0  0  0  0  0
   -2.6837   -1.2259    0.8344 H   0  0  0  0  0  0  0  0  0  0  0  0
   -0.1566   -0.6832    0.0568 C   0  0  0  0  0  0  0  0  0  0  0  0
   -1.4016    0.8705    0.8558 H   0  0  0  0  0  0  0  0  0  0  0  0
   -1.3481    0.7726   -0.8850 H   0  0  0  0  0  0  0  0  0  0  0  0
   -0.1589   -1.3931    1.0194 H   0  0  0  0  0  0  0  0  0  0  0  0
    0.7855   -0.0876   -0.0532 H   0  0  0  0  0  0  0  0  0  0  0  0
   -0.1836   -1.2564   -0.7447 H   0  0  0  0  0  0  0  0  0  0  0  0
  1  3  1  0  0  0  0
  1  5  1  0  0  0  0
  2  1  1  0  0  0  0
  2  8  1  0  0  0  0
  4  1  1  0  0  0  0
  6  2  1  0  0  0  0
  6  9  1  0  0  0  0
  6 10  1  0  0  0  0
  7  2  1  0  0  0  0
  9 12  1  0  0  0  0
 11  6  1  0  0  0  0
 13  9  1  0  0  0  0
 14  9  1  0  0  0  0
M  END
$$$$
