14
butane_opt
C  -3.956214   0.260332  -0.005155
C  -2.705279  -0.605174   0.083621
H  -4.873892  -0.342895  -0.137569
H  -3.856056   0.788401  -0.864403
H  -4.057852   0.961031   0.888023
C  -1.413268   0.190813   0.028573
H  -2.703159  -1.270855  -0.763950
H  -2.711389  -1.269425   0.980749
C  -0.141345  -0.692401   0.003311
H  -1.365271   0.862639   0.889568
H  -1.372457   0.814694  -0.890628
H  -0.080922  -1.333530   0.895384
H   0.738671  -0.144455   0.010617
H  -0.147957  -1.384030  -0.884152
