butane_opt
 OpenBabel08242015413D

 14 13  0  0  0  0  0  0  0  0999 V2000
   -3.9357    0.2626    0.0347 C   0  0  0  0  0  0  0  0  0  0  0  0
   -2.6971   -0.6139    0.0218 C   0  0  0  0  0  0  0  0  0  0  0  0
   -4.8098   -0.2904   -0.0427 H   0  0  0  0  0  0  0  0  0  0  0  0
   -3.9261    0.7383   -0.7602 H   0  0  0  0  0  0  0  0  0  0  0  0
   -3.9718    1.0861    0.9970 H   0  0  0  0  0  0  0  0  0  0  0  0
   -1.4134    0.1803   -0.0251 C   0  0  0  0  0  0  0  0  0  0  0  0
   -2.6961   -1.3033   -0.8404 H   0  0  0  0  0  0  0  0  0  0  0  0
   -2.6924   -1.2995    0.9342 H   0  0  0  0  0  0  0  0  0  0  0  0
   -0.1694   -0.6902    0.0590 C   0  0  0  0  0  0  0  0  0  0  0  0
   -1.4280    0.8374    0.8203 H   0  0  0  0  0  0  0  0  0  0  0  0
   -1.3846    0.8268   -0.9341 H   0  0  0  0  0  0  0  0  0  0  0  0
   -0.1512   -1.3295    0.9905 H   0  0  0  0  0  0  0  0  0  0  0  0
    0.7799   -0.0907   -0.0276 H   0  0  0  0  0  0  0  0  0  0  0  0
   -0.1642   -1.3018   -0.7603 H   0  0  0  0  0  0  0  0  0  0  0  0
  1  5  1  0  0  0  0
  2  1  1  0  0  0  0
  2  8  1  0  0  0  0
  3  1  1  0  0  0  0
  4  1  1  0  0  0  0
  6  2  1  0  0  0  0
  6  9  1  0  0  0  0
  6 10  1  0  0  0  0
  7  2  1  0  0  0  0
  9 12  1  0  0  0  0
 11  6  1  0  0  0  0
 13  9  1  0  0  0  0
 14  9  1  0  0  0  0
M  END
$$$$
