butane_opt
 OpenBabel08242015413D

 14 13  0  0  0  0  0  0  0  0999 V2000
   -3.9367    0.2742   -0.0118 C   0  0  0  0  0  0  0  0  0  0  0  0
   -2.6882   -0.6299    0.0768 C   0  0  0  0  0  0  0  0  0  0  0  0
   -4.8175   -0.2969    0.0157 H   0  0  0  0  0  0  0  0  0  0  0  0
   -3.9855    0.9295   -0.9420 H   0  0  0  0  0  0  0  0  0  0  0  0
   -3.9682    0.9402    0.8172 H   0  0  0  0  0  0  0  0  0  0  0  0
   -1.4052    0.1801    0.0390 C   0  0  0  0  0  0  0  0  0  0  0  0
   -2.7015   -1.3024   -0.7656 H   0  0  0  0  0  0  0  0  0  0  0  0
   -2.7221   -1.3125    1.0180 H   0  0  0  0  0  0  0  0  0  0  0  0
   -0.1843   -0.6907    0.0040 C   0  0  0  0  0  0  0  0  0  0  0  0
   -1.3304    0.8262    0.8621 H   0  0  0  0  0  0  0  0  0  0  0  0
   -1.3915    0.8434   -0.8636 H   0  0  0  0  0  0  0  0  0  0  0  0
   -0.1879   -1.1775    0.8087 H   0  0  0  0  0  0  0  0  0  0  0  0
    0.7982   -0.0434    0.1012 H   0  0  0  0  0  0  0  0  0  0  0  0
   -0.1485   -1.4729   -0.9248 H   0  0  0  0  0  0  0  0  0  0  0  0
  1  3  1  0  0  0  0
  1  2  1  0  0  0  0
  1  5  1  0  0  0  0
  2  8  1  0  0  0  0
  4  1  1  0  0  0  0
  6  2  1  0  0  0  0
  6 10  1  0  0  0  0
  7  2  1  0  0  0  0
  9  6  1  0  0  0  0
  9 13  1  0  0  0  0
  9 12  1  0  0  0  0
 11  6  1  0  0  0  0
 14  9  1  0  0  0  0
M  END
$$$$
