butane_opt
 OpenBabel08242015413D

 14 13  0  0  0  0  0  0  0  0999 V2000
   -3.9417    0.2724    0.0292 C   0  0  0  0  0  0  0  0  0  0  0  0
   -2.6875   -0.6148    0.0250 C   0  0  0  0  0  0  0  0  0  0  0  0
   -4.8426   -0.3249   -0.0365 H   0  0  0  0  0  0  0  0  0  0  0  0
   -3.9562    0.7468   -0.7783 H   0  0  0  0  0  0  0  0  0  0  0  0
   -3.9981    1.0859    0.9941 H   0  0  0  0  0  0  0  0  0  0  0  0
   -1.4123    0.1644   -0.0143 C   0  0  0  0  0  0  0  0  0  0  0  0
   -2.6975   -1.3215   -0.8322 H   0  0  0  0  0  0  0  0  0  0  0  0
   -2.7491   -1.2684    0.9421 H   0  0  0  0  0  0  0  0  0  0  0  0
   -0.1640   -0.6816    0.0538 C   0  0  0  0  0  0  0  0  0  0  0  0
   -1.4062    0.8266    0.8003 H   0  0  0  0  0  0  0  0  0  0  0  0
   -1.3971    0.8078   -0.9112 H   0  0  0  0  0  0  0  0  0  0  0  0
   -0.1382   -1.3780    0.9691 H   0  0  0  0  0  0  0  0  0  0  0  0
    0.7832   -0.0417   -0.0435 H   0  0  0  0  0  0  0  0  0  0  0  0
   -0.1624   -1.2787   -0.7612 H   0  0  0  0  0  0  0  0  0  0  0  0
  1  5  1  0  0  0  0
  2  1  1  0  0  0  0
  2  8  1  0  0  0  0
  3  1  1  0  0  0  0
  4  1  1  0  0  0  0
  6  2  1  0  0  0  0
  6  9  1  0  0  0  0
  6 10  1  0  0  0  0
  7  2  1  0  0  0  0
  9 12  1  0  0  0  0
 11  6  1  0  0  0  0
 13  9  1  0  0  0  0
 14  9  1  0  0  0  0
M  END
$$$$
