butane_opt
 OpenBabel08242015413D

 14 13  0  0  0  0  0  0  0  0999 V2000
   -3.9296    0.2567    0.0262 C   0  0  0  0  0  0  0  0  0  0  0  0
   -2.7093   -0.5979    0.0235 C   0  0  0  0  0  0  0  0  0  0  0  0
   -4.8430   -0.3449    0.0142 H   0  0  0  0  0  0  0  0  0  0  0  0
   -3.9238    0.8575   -0.8755 H   0  0  0  0  0  0  0  0  0  0  0  0
   -3.9488    0.9147    0.8660 H   0  0  0  0  0  0  0  0  0  0  0  0
   -1.4071    0.1979    0.0184 C   0  0  0  0  0  0  0  0  0  0  0  0
   -2.7217   -1.3016   -0.8328 H   0  0  0  0  0  0  0  0  0  0  0  0
   -2.6912   -1.2497    0.9044 H   0  0  0  0  0  0  0  0  0  0  0  0
   -0.1596   -0.7098    0.0273 C   0  0  0  0  0  0  0  0  0  0  0  0
   -1.4293    0.9123    0.8839 H   0  0  0  0  0  0  0  0  0  0  0  0
   -1.3835    0.7529   -0.8287 H   0  0  0  0  0  0  0  0  0  0  0  0
   -0.1154   -1.4345    1.0012 H   0  0  0  0  0  0  0  0  0  0  0  0
    0.7400   -0.0998   -0.0975 H   0  0  0  0  0  0  0  0  0  0  0  0
   -0.2322   -1.2370   -0.7295 H   0  0  0  0  0  0  0  0  0  0  0  0
  1  5  1  0  0  0  0
  2  1  1  0  0  0  0
  2  8  1  0  0  0  0
  3  1  1  0  0  0  0
  4  1  1  0  0  0  0
  6  2  1  0  0  0  0
  6  9  1  0  0  0  0
  6 10  1  0  0  0  0
  7  2  1  0  0  0  0
  9 12  1  0  0  0  0
 11  6  1  0  0  0  0
 13  9  1  0  0  0  0
 14  9  1  0  0  0  0
M  END
$$$$
