14
butane_opt
C  -3.943482   0.273657   0.046620
C  -2.693788  -0.620015   0.013321
H  -4.860929  -0.296671   0.107366
H  -3.980095   0.864366  -0.841881
H  -3.945302   0.980428   0.938251
C  -1.393152   0.167262  -0.034017
H  -2.712650  -1.338902  -0.849813
H  -2.709544  -1.249862   0.905693
C  -0.174888  -0.693136   0.069346
H  -1.427135   0.817924   0.791291
H  -1.357050   0.865117  -0.975973
H  -0.207613  -1.192314   0.899524
H   0.772172  -0.048848   0.135627
H  -0.135078  -1.402111  -0.812835
