14
butane_opt
C  -3.957534   0.248774  -0.014584
C  -2.707675  -0.601700   0.064411
H  -4.877146  -0.354128   0.092681
H  -3.951491   0.990239  -0.984753
H  -3.930909   0.861355   0.816333
C  -1.401990   0.196913   0.048964
H  -2.698585  -1.255880  -0.770513
H  -2.709155  -1.279340   0.970377
C  -0.147190  -0.705013  -0.008420
H  -1.342613   0.947288   0.946476
H  -1.451082   0.779197  -0.796121
H  -0.117582  -1.323777   0.880424
H   0.765482  -0.116875   0.048061
H  -0.131167  -1.386492  -0.853246
