14
butane_opt
C  -3.944545   0.272863   0.052096
C  -2.695894  -0.629943  -0.000252
H  -4.837441  -0.296306   0.179473
H  -4.056482   0.963398  -0.880150
H  -3.920596   0.898952   0.877384
C  -1.400052   0.178691  -0.020543
H  -2.763050  -1.394827  -0.925804
H  -2.731469  -1.165082   0.848022
C  -0.163277  -0.683609   0.065096
H  -1.379435   0.836042   0.815139
H  -1.378878   0.790287  -0.910784
H  -0.147180  -1.356036   0.976304
H   0.747772  -0.086666   0.064574
H  -0.117792  -1.307050  -0.754404
