butane_opt
 OpenBabel08242015413D

 14 13  0  0  0  0  0  0  0  0999 V2000
   -3.9538    0.2711    0.0490 C   0  0  0  0  0  0  0  0  0  0  0  0
   -2.6891   -0.6209   -0.0105 C   0  0  0  0  0  0  0  0  0  0  0  0
   -4.8557   -0.3418    0.1563 H   0  0  0  0  0  0  0  0  0  0  0  0
   -4.0796    0.9440   -0.8633 H   0  0  0  0  0  0  0  0  0  0  0  0
   -3.8531    0.9035    0.9103 H   0  0  0  0  0  0  0  0  0  0  0  0
   -1.3998    0.1743   -0.0185 C   0  0  0  0  0  0  0  0  0  0  0  0
   -2.7055   -1.3345   -0.8815 H   0  0  0  0  0  0  0  0  0  0  0  0
   -2.6205   -1.2522    0.8743 H   0  0  0  0  0  0  0  0  0  0  0  0
   -0.1757   -0.6865    0.0608 C   0  0  0  0  0  0  0  0  0  0  0  0
   -1.3890    0.8704    0.8489 H   0  0  0  0  0  0  0  0  0  0  0  0
   -1.3683    0.8276   -0.8881 H   0  0  0  0  0  0  0  0  0  0  0  0
   -0.2035   -1.3600    1.0010 H   0  0  0  0  0  0  0  0  0  0  0  0
    0.7764   -0.0535    0.0647 H   0  0  0  0  0  0  0  0  0  0  0  0
   -0.1057   -1.3247   -0.7597 H   0  0  0  0  0  0  0  0  0  0  0  0
  1  3  1  0  0  0  0
  1  5  1  0  0  0  0
  2  1  1  0  0  0  0
  2  8  1  0  0  0  0
  4  1  1  0  0  0  0
  6  2  1  0  0  0  0
  6  9  1  0  0  0  0
  6 10  1  0  0  0  0
  7  2  1  0  0  0  0
  9 13  1  0  0  0  0
  9 12  1  0  0  0  0
 11  6  1  0  0  0  0
 14  9  1  0  0  0  0
M  END
$$$$
