butane_opt
 OpenBabel08242015413D

 14 13  0  0  0  0  0  0  0  0999 V2000
   -3.9387    0.2668    0.0531 C   0  0  0  0  0  0  0  0  0  0  0  0
   -2.6891   -0.6145    0.0239 C   0  0  0  0  0  0  0  0  0  0  0  0
   -4.8568   -0.3180    0.0216 H   0  0  0  0  0  0  0  0  0  0  0  0
   -3.9767    0.8807   -0.8606 H   0  0  0  0  0  0  0  0  0  0  0  0
   -3.9517    0.9563    0.9465 H   0  0  0  0  0  0  0  0  0  0  0  0
   -1.4178    0.1729   -0.0327 C   0  0  0  0  0  0  0  0  0  0  0  0
   -2.6877   -1.3576   -0.8805 H   0  0  0  0  0  0  0  0  0  0  0  0
   -2.6913   -1.2502    0.8999 H   0  0  0  0  0  0  0  0  0  0  0  0
   -0.1668   -0.6793    0.0554 C   0  0  0  0  0  0  0  0  0  0  0  0
   -1.3749    0.8006    0.7711 H   0  0  0  0  0  0  0  0  0  0  0  0
   -1.3590    0.8503   -0.9531 H   0  0  0  0  0  0  0  0  0  0  0  0
   -0.2582   -1.2528    0.9492 H   0  0  0  0  0  0  0  0  0  0  0  0
    0.7416   -0.1065    0.1678 H   0  0  0  0  0  0  0  0  0  0  0  0
   -0.0580   -1.4248   -0.8225 H   0  0  0  0  0  0  0  0  0  0  0  0
  1  5  1  0  0  0  0
  2  1  1  0  0  0  0
  2  8  1  0  0  0  0
  3  1  1  0  0  0  0
  4  1  1  0  0  0  0
  6  2  1  0  0  0  0
  6  9  1  0  0  0  0
  6 10  1  0  0  0  0
  7  2  1  0  0  0  0
  9 13  1  0  0  0  0
  9 12  1  0  0  0  0
 11  6  1  0  0  0  0
 14  9  1  0  0  0  0
M  END
$$$$
