14
butane_opt
C  -3.957231   0.273236   0.004448
C  -2.701913  -0.625584   0.053208
H  -4.865603  -0.281400  -0.037483
H  -3.987184   0.869202  -0.864492
H  -4.019534   0.946406   0.889063
C  -1.399238   0.174973   0.027076
H  -2.664072  -1.323257  -0.805929
H  -2.699403  -1.306957   0.962230
C  -0.152058  -0.678598   0.022330
H  -1.322098   0.818880   0.859804
H  -1.404417   0.831711  -0.881915
H  -0.106698  -1.278282   0.912091
H   0.725174  -0.113818  -0.018268
H  -0.155147  -1.361812  -0.858155
