14
butane_opt
C  -3.949146   0.279432   0.041690
C  -2.704873  -0.639195   0.012505
H  -4.817867  -0.262568   0.108601
H  -4.008140   0.884475  -0.829669
H  -3.975973   0.945446   0.930382
C  -1.391970   0.175958  -0.023083
H  -2.747667  -1.340566  -0.854875
H  -2.686869  -1.254722   0.891334
C  -0.159701  -0.679609   0.066580
H  -1.407239   0.821097   0.804150
H  -1.358221   0.869298  -0.990483
H  -0.178691  -1.246101   0.928419
H   0.756174  -0.091347   0.114440
H  -0.140982  -1.428899  -0.836134
