butane_opt
 OpenBabel08242015413D

 14 13  0  0  0  0  0  0  0  0999 V2000
   -3.9557    0.2589   -0.0106 C   0  0  0  0  0  0  0  0  0  0  0  0
   -2.7060   -0.6102    0.0839 C   0  0  0  0  0  0  0  0  0  0  0  0
   -4.9056   -0.3723    0.0574 H   0  0  0  0  0  0  0  0  0  0  0  0
   -3.9090    0.9107   -0.9323 H   0  0  0  0  0  0  0  0  0  0  0  0
   -3.9930    0.9059    0.8434 H   0  0  0  0  0  0  0  0  0  0  0  0
   -1.4002    0.2043    0.0202 C   0  0  0  0  0  0  0  0  0  0  0  0
   -2.7247   -1.2889   -0.7687 H   0  0  0  0  0  0  0  0  0  0  0  0
   -2.7424   -1.2167    0.9647 H   0  0  0  0  0  0  0  0  0  0  0  0
   -0.1494   -0.7097    0.0083 C   0  0  0  0  0  0  0  0  0  0  0  0
   -1.3559    0.8442    0.8799 H   0  0  0  0  0  0  0  0  0  0  0  0
   -1.3960    0.8111   -0.8616 H   0  0  0  0  0  0  0  0  0  0  0  0
   -0.1438   -1.2111    0.8141 H   0  0  0  0  0  0  0  0  0  0  0  0
    0.7386   -0.1074    0.1250 H   0  0  0  0  0  0  0  0  0  0  0  0
   -0.0503   -1.4721   -0.9149 H   0  0  0  0  0  0  0  0  0  0  0  0
  1  3  1  0  0  0  0
  1  2  1  0  0  0  0
  1  5  1  0  0  0  0
  2  8  1  0  0  0  0
  4  1  1  0  0  0  0
  6  2  1  0  0  0  0
  6 10  1  0  0  0  0
  7  2  1  0  0  0  0
  9  6  1  0  0  0  0
  9 13  1  0  0  0  0
  9 12  1  0  0  0  0
 11  6  1  0  0  0  0
 14  9  1  0  0  0  0
M  END
$$$$
