14
butane_opt
C  -3.953129   0.276508   0.034793
C  -2.699266  -0.631054   0.004871
H  -4.849577  -0.300040   0.053423
H  -4.053267   0.874673  -0.831192
H  -3.987038   0.983815   0.930678
C  -1.395345   0.173685   0.010442
H  -2.716286  -1.347850  -0.872335
H  -2.724146  -1.208859   0.868330
C  -0.155906  -0.686461   0.049964
H  -1.348963   0.802739   0.802592
H  -1.365282   0.838111  -0.898576
H  -0.095499  -1.385917   1.006961
H   0.790378  -0.095547  -0.070385
H  -0.225816  -1.218347  -0.728752
