butane_opt
 OpenBabel08242015413D

 14 13  0  0  0  0  0  0  0  0999 V2000
   -3.9559    0.2768    0.0356 C   0  0  0  0  0  0  0  0  0  0  0  0
   -2.7018   -0.6278    0.0145 C   0  0  0  0  0  0  0  0  0  0  0  0
   -4.8614   -0.3028    0.0132 H   0  0  0  0  0  0  0  0  0  0  0  0
   -3.9664    0.8166   -0.7740 H   0  0  0  0  0  0  0  0  0  0  0  0
   -3.9967    1.0001    0.9160 H   0  0  0  0  0  0  0  0  0  0  0  0
   -1.3931    0.1771    0.0007 C   0  0  0  0  0  0  0  0  0  0  0  0
   -2.7078   -1.3374   -0.8592 H   0  0  0  0  0  0  0  0  0  0  0  0
   -2.7643   -1.2042    0.8832 H   0  0  0  0  0  0  0  0  0  0  0  0
   -0.1564   -0.6899    0.0497 C   0  0  0  0  0  0  0  0  0  0  0  0
   -1.4058    0.7858    0.8221 H   0  0  0  0  0  0  0  0  0  0  0  0
   -1.3616    0.8612   -0.9279 H   0  0  0  0  0  0  0  0  0  0  0  0
   -0.0962   -1.3868    0.9943 H   0  0  0  0  0  0  0  0  0  0  0  0
    0.7870   -0.0633   -0.0561 H   0  0  0  0  0  0  0  0  0  0  0  0
   -0.1747   -1.2702   -0.7572 H   0  0  0  0  0  0  0  0  0  0  0  0
  1  5  1  0  0  0  0
  2  1  1  0  0  0  0
  2  8  1  0  0  0  0
  3  1  1  0  0  0  0
  4  1  1  0  0  0  0
  6  2  1  0  0  0  0
  6  9  1  0  0  0  0
  6 10  1  0  0  0  0
  7  2  1  0  0  0  0
  9 12  1  0  0  0  0
 11  6  1  0  0  0  0
 13  9  1  0  0  0  0
 14  9  1  0  0  0  0
M  END
$$$$
