butane_opt
 OpenBabel08242015413D

 14 13  0  0  0  0  0  0  0  0999 V2000
   -3.9319    0.2597   -0.0013 C   0  0  0  0  0  0  0  0  0  0  0  0
   -2.6915   -0.6138    0.0519 C   0  0  0  0  0  0  0  0  0  0  0  0
   -4.8768   -0.3693    0.1773 H   0  0  0  0  0  0  0  0  0  0  0  0
   -3.9887    1.0056   -0.9841 H   0  0  0  0  0  0  0  0  0  0  0  0
   -3.9096    0.8277    0.7965 H   0  0  0  0  0  0  0  0  0  0  0  0
   -1.4042    0.1948    0.0287 C   0  0  0  0  0  0  0  0  0  0  0  0
   -2.6940   -1.2993   -0.8011 H   0  0  0  0  0  0  0  0  0  0  0  0
   -2.7140   -1.2474    0.9466 H   0  0  0  0  0  0  0  0  0  0  0  0
   -0.1737   -0.6967    0.0081 C   0  0  0  0  0  0  0  0  0  0  0  0
   -1.4074    0.9214    0.9411 H   0  0  0  0  0  0  0  0  0  0  0  0
   -1.4313    0.7778   -0.8159 H   0  0  0  0  0  0  0  0  0  0  0  0
   -0.1621   -1.2709    0.9033 H   0  0  0  0  0  0  0  0  0  0  0  0
    0.7255   -0.1395    0.0863 H   0  0  0  0  0  0  0  0  0  0  0  0
   -0.1425   -1.4085   -0.8732 H   0  0  0  0  0  0  0  0  0  0  0  0
  1  2  1  0  0  0  0
  1  3  1  0  0  0  0
  1  5  1  0  0  0  0
  2  8  1  0  0  0  0
  4  1  1  0  0  0  0
  6  2  1  0  0  0  0
  6 10  1  0  0  0  0
  7  2  1  0  0  0  0
  9  6  1  0  0  0  0
  9 13  1  0  0  0  0
  9 12  1  0  0  0  0
 11  6  1  0  0  0  0
 14  9  1  0  0  0  0
M  END
$$$$
