14
butane_opt
C  -3.937447   0.265450   0.034530
C  -2.693872  -0.613667   0.023845
H  -4.889269  -0.335921  -0.056622
H  -3.941584   0.750592  -0.783576
H  -3.992117   1.091050   1.002019
C  -1.395122   0.176948  -0.015776
H  -2.719508  -1.259891  -0.818888
H  -2.686003  -1.242390   0.922692
C  -0.180028  -0.692666   0.045951
H  -1.377721   0.821458   0.805765
H  -1.382299   0.817912  -0.935944
H  -0.189110  -1.365120   1.000577
H   0.734471  -0.086458   0.007902
H  -0.098086  -1.302300  -0.746461
