butane_opt
 OpenBabel08242015413D

 14 13  0  0  0  0  0  0  0  0999 V2000
   -3.9462    0.2728    0.0232 C   0  0  0  0  0  0  0  0  0  0  0  0
   -2.6970   -0.6176    0.0173 C   0  0  0  0  0  0  0  0  0  0  0  0
   -4.8478   -0.3239    0.0416 H   0  0  0  0  0  0  0  0  0  0  0  0
   -3.9962    0.8532   -0.8509 H   0  0  0  0  0  0  0  0  0  0  0  0
   -3.9264    0.9528    0.9145 H   0  0  0  0  0  0  0  0  0  0  0  0
   -1.3973    0.1698    0.0162 C   0  0  0  0  0  0  0  0  0  0  0  0
   -2.6592   -1.3093   -0.8398 H   0  0  0  0  0  0  0  0  0  0  0  0
   -2.6792   -1.2487    0.9049 H   0  0  0  0  0  0  0  0  0  0  0  0
   -0.1727   -0.6906    0.0346 C   0  0  0  0  0  0  0  0  0  0  0  0
   -1.3812    0.8877    0.8990 H   0  0  0  0  0  0  0  0  0  0  0  0
   -1.3416    0.8263   -0.8790 H   0  0  0  0  0  0  0  0  0  0  0  0
   -0.1455   -1.4141    1.0105 H   0  0  0  0  0  0  0  0  0  0  0  0
    0.7450   -0.0901   -0.0796 H   0  0  0  0  0  0  0  0  0  0  0  0
   -0.2288   -1.2190   -0.7626 H   0  0  0  0  0  0  0  0  0  0  0  0
  1  3  1  0  0  0  0
  1  5  1  0  0  0  0
  2  1  1  0  0  0  0
  2  8  1  0  0  0  0
  4  1  1  0  0  0  0
  6  2  1  0  0  0  0
  6  9  1  0  0  0  0
  6 10  1  0  0  0  0
  7  2  1  0  0  0  0
  9 12  1  0  0  0  0
 11  6  1  0  0  0  0
 13  9  1  0  0  0  0
 14  9  1  0  0  0  0
M  END
$$$$
