14
butane_opt
C  -3.944680   0.257449   0.030507
C  -2.716988  -0.600104   0.018690
H  -4.871812  -0.379212   0.048701
H  -3.963793   0.900397  -0.899934
H  -3.971065   0.896555   0.870068
C  -1.401370   0.194901   0.012284
H  -2.760572  -1.311828  -0.842977
H  -2.739892  -1.226448   0.927082
C  -0.136756  -0.705819   0.038995
H  -1.418439   0.909425   0.901236
H  -1.426840   0.787861  -0.870986
H  -0.111374  -1.379681   0.975697
H   0.753174  -0.143412  -0.083422
H  -0.110405  -1.280932  -0.791171
