butane_opt
 OpenBabel08242015413D

 14 13  0  0  0  0  0  0  0  0999 V2000
   -3.9368    0.2662   -0.0171 C   0  0  0  0  0  0  0  0  0  0  0  0
   -2.6963   -0.6143    0.0836 C   0  0  0  0  0  0  0  0  0  0  0  0
   -4.8205   -0.3066   -0.1042 H   0  0  0  0  0  0  0  0  0  0  0  0
   -3.9104    0.8331   -0.9288 H   0  0  0  0  0  0  0  0  0  0  0  0
   -4.0523    0.9627    0.8512 H   0  0  0  0  0  0  0  0  0  0  0  0
   -1.4027    0.1854    0.0469 C   0  0  0  0  0  0  0  0  0  0  0  0
   -2.6942   -1.2596   -0.7338 H   0  0  0  0  0  0  0  0  0  0  0  0
   -2.7303   -1.2879    1.0225 H   0  0  0  0  0  0  0  0  0  0  0  0
   -0.1699   -0.6923    0.0041 C   0  0  0  0  0  0  0  0  0  0  0  0
   -1.3206    0.8332    0.8948 H   0  0  0  0  0  0  0  0  0  0  0  0
   -1.3996    0.7872   -0.8400 H   0  0  0  0  0  0  0  0  0  0  0  0
   -0.1147   -1.2437    0.8489 H   0  0  0  0  0  0  0  0  0  0  0  0
    0.7257   -0.1191   -0.0831 H   0  0  0  0  0  0  0  0  0  0  0  0
   -0.2306   -1.4091   -0.9023 H   0  0  0  0  0  0  0  0  0  0  0  0
  1  2  1  0  0  0  0
  1  5  1  0  0  0  0
  2  8  1  0  0  0  0
  3  1  1  0  0  0  0
  4  1  1  0  0  0  0
  6  2  1  0  0  0  0
  6 10  1  0  0  0  0
  7  2  1  0  0  0  0
  9  6  1  0  0  0  0
  9 12  1  0  0  0  0
 11  6  1  0  0  0  0
 13  9  1  0  0  0  0
 14  9  1  0  0  0  0
M  END
$$$$
