butane_opt
 OpenBabel08242015413D

 14 13  0  0  0  0  0  0  0  0999 V2000
   -3.9411    0.2755   -0.0133 C   0  0  0  0  0  0  0  0  0  0  0  0
   -2.6792   -0.6306    0.0854 C   0  0  0  0  0  0  0  0  0  0  0  0
   -4.8647   -0.3230   -0.1007 H   0  0  0  0  0  0  0  0  0  0  0  0
   -3.8930    0.8663   -0.9134 H   0  0  0  0  0  0  0  0  0  0  0  0
   -4.0495    0.9890    0.8822 H   0  0  0  0  0  0  0  0  0  0  0  0
   -1.4092    0.1748    0.0305 C   0  0  0  0  0  0  0  0  0  0  0  0
   -2.6876   -1.2520   -0.7243 H   0  0  0  0  0  0  0  0  0  0  0  0
   -2.7176   -1.3393    1.0037 H   0  0  0  0  0  0  0  0  0  0  0  0
   -0.1814   -0.6859   -0.0053 C   0  0  0  0  0  0  0  0  0  0  0  0
   -1.3147    0.8883    0.9234 H   0  0  0  0  0  0  0  0  0  0  0  0
   -1.4385    0.7757   -0.8359 H   0  0  0  0  0  0  0  0  0  0  0  0
   -0.1332   -1.2470    0.8787 H   0  0  0  0  0  0  0  0  0  0  0  0
    0.7529   -0.0505    0.0449 H   0  0  0  0  0  0  0  0  0  0  0  0
   -0.1541   -1.3813   -0.8824 H   0  0  0  0  0  0  0  0  0  0  0  0
  1  2  1  0  0  0  0
  1  5  1  0  0  0  0
  2  8  1  0  0  0  0
  3  1  1  0  0  0  0
  4  1  1  0  0  0  0
  6  2  1  0  0  0  0
  6 10  1  0  0  0  0
  7  2  1  0  0  0  0
  9  6  1  0  0  0  0
  9 13  1  0  0  0  0
  9 12  1  0  0  0  0
 11  6  1  0  0  0  0
 14  9  1  0  0  0  0
M  END
$$$$
