14
butane_opt
C  -3.950229   0.247867  -0.000418
C  -2.703066  -0.604604   0.043603
H  -4.869975  -0.330200   0.015047
H  -3.994474   0.896067  -0.898651
H  -3.966018   0.884650   0.840056
C  -1.402224   0.206408   0.037274
H  -2.726878  -1.276461  -0.804634
H  -2.724933  -1.273024   0.974433
C  -0.144690  -0.700195   0.020146
H  -1.393152   0.908182   0.939072
H  -1.410845   0.808475  -0.825700
H  -0.018012  -1.369270   0.927452
H   0.684827  -0.170575  -0.113529
H  -0.190405  -1.349978  -0.827107
