14
butane_opt
C  -3.939488   0.252841   0.036516
C  -2.707194  -0.606563   0.028373
H  -4.867522  -0.338504  -0.086373
H  -3.875994   0.752673  -0.798605
H  -4.014153   1.031629   0.983723
C  -1.410134   0.207199  -0.012346
H  -2.755133  -1.313304  -0.834782
H  -2.721998  -1.208040   0.912714
C  -0.153068  -0.699195   0.048757
H  -1.365938   0.785665   0.799227
H  -1.438987   0.851771  -0.925947
H  -0.096424  -1.399681   0.993883
H   0.711077  -0.158141  -0.012241
H  -0.080310  -1.328638  -0.784374
