butane_opt
 OpenBabel08242015413D

 14 13  0  0  0  0  0  0  0  0999 V2000
   -3.9549    0.2595    0.0367 C   0  0  0  0  0  0  0  0  0  0  0  0
   -2.7019   -0.6041    0.0180 C   0  0  0  0  0  0  0  0  0  0  0  0
   -4.8931   -0.3659   -0.0599 H   0  0  0  0  0  0  0  0  0  0  0  0
   -3.9309    0.7492   -0.7717 H   0  0  0  0  0  0  0  0  0  0  0  0
   -3.9956    1.0469    0.9925 H   0  0  0  0  0  0  0  0  0  0  0  0
   -1.4054    0.1883   -0.0207 C   0  0  0  0  0  0  0  0  0  0  0  0
   -2.7229   -1.2748   -0.8175 H   0  0  0  0  0  0  0  0  0  0  0  0
   -2.7385   -1.2427    0.9337 H   0  0  0  0  0  0  0  0  0  0  0  0
   -0.1500   -0.6984    0.0565 C   0  0  0  0  0  0  0  0  0  0  0  0
   -1.4044    0.8429    0.7998 H   0  0  0  0  0  0  0  0  0  0  0  0
   -1.3752    0.8188   -0.8889 H   0  0  0  0  0  0  0  0  0  0  0  0
   -0.0640   -1.3813    1.0016 H   0  0  0  0  0  0  0  0  0  0  0  0
    0.7534   -0.1175   -0.0421 H   0  0  0  0  0  0  0  0  0  0  0  0
   -0.1050   -1.2967   -0.7735 H   0  0  0  0  0  0  0  0  0  0  0  0
  1  5  1  0  0  0  0
  2  1  1  0  0  0  0
  2  8  1  0  0  0  0
  3  1  1  0  0  0  0
  4  1  1  0  0  0  0
  6  2  1  0  0  0  0
  6  9  1  0  0  0  0
  6 10  1  0  0  0  0
  7  2  1  0  0  0  0
  9 12  1  0  0  0  0
 11  6  1  0  0  0  0
 13  9  1  0  0  0  0
 14  9  1  0  0  0  0
M  END
$$$$
