14
butane_opt
C  -3.956221   0.277121   0.034280
C  -2.695153  -0.631644   0.028701
H  -4.873698  -0.316928   0.017770
H  -4.008387   0.879279  -0.844533
H  -4.019504   0.964943   0.904269
C  -1.393102   0.186268  -0.003304
H  -2.756640  -1.362565  -0.874826
H  -2.716786  -1.205157   0.860072
C  -0.152453  -0.686786   0.045116
H  -1.402236   0.824280   0.829171
H  -1.352039   0.776452  -0.891904
H  -0.130774  -1.403785   0.981492
H   0.784853  -0.074448  -0.021331
H  -0.185819  -1.282945  -0.765415
