butane_opt
 OpenBabel08242015413D

 14 13  0  0  0  0  0  0  0  0999 V2000
   -3.9319    0.2444    0.0150 C   0  0  0  0  0  0  0  0  0  0  0  0
   -2.7101   -0.6051    0.0368 C   0  0  0  0  0  0  0  0  0  0  0  0
   -4.8376   -0.3200    0.1000 H   0  0  0  0  0  0  0  0  0  0  0  0
   -3.9770    0.9423   -0.9450 H   0  0  0  0  0  0  0  0  0  0  0  0
   -3.9180    0.8936    0.8685 H   0  0  0  0  0  0  0  0  0  0  0  0
   -1.4063    0.2036    0.0093 C   0  0  0  0  0  0  0  0  0  0  0  0
   -2.6929   -1.2171   -0.7706 H   0  0  0  0  0  0  0  0  0  0  0  0
   -2.7399   -1.2591    0.9696 H   0  0  0  0  0  0  0  0  0  0  0  0
   -0.1618   -0.7090    0.0310 C   0  0  0  0  0  0  0  0  0  0  0  0
   -1.4149    0.8877    0.8867 H   0  0  0  0  0  0  0  0  0  0  0  0
   -1.3936    0.8127   -0.8530 H   0  0  0  0  0  0  0  0  0  0  0  0
   -0.1664   -1.2304    0.8707 H   0  0  0  0  0  0  0  0  0  0  0  0
    0.7344   -0.1186    0.0614 H   0  0  0  0  0  0  0  0  0  0  0  0
   -0.0885   -1.4737   -0.8736 H   0  0  0  0  0  0  0  0  0  0  0  0
  1  2  1  0  0  0  0
  1  3  1  0  0  0  0
  1  5  1  0  0  0  0
  2  8  1  0  0  0  0
  4  1  1  0  0  0  0
  6  9  1  0  0  0  0
  6  2  1  0  0  0  0
  6 10  1  0  0  0  0
  7  2  1  0  0  0  0
  9 13  1  0  0  0  0
  9 12  1  0  0  0  0
 11  6  1  0  0  0  0
 14  9  1  0  0  0  0
M  END
$$$$
