butane_opt
 OpenBabel08242015413D

 14 13  0  0  0  0  0  0  0  0999 V2000
   -3.9288    0.2601    0.0376 C   0  0  0  0  0  0  0  0  0  0  0  0
   -2.7070   -0.5976    0.0187 C   0  0  0  0  0  0  0  0  0  0  0  0
   -4.8548   -0.3372   -0.0856 H   0  0  0  0  0  0  0  0  0  0  0  0
   -3.9227    0.7725   -0.7833 H   0  0  0  0  0  0  0  0  0  0  0  0
   -4.0134    0.9832    0.9508 H   0  0  0  0  0  0  0  0  0  0  0  0
   -1.4062    0.1837   -0.0096 C   0  0  0  0  0  0  0  0  0  0  0  0
   -2.7461   -1.2816   -0.8275 H   0  0  0  0  0  0  0  0  0  0  0  0
   -2.6691   -1.2609    0.9288 H   0  0  0  0  0  0  0  0  0  0  0  0
   -0.1645   -0.7055    0.0489 C   0  0  0  0  0  0  0  0  0  0  0  0
   -1.3761    0.8919    0.8554 H   0  0  0  0  0  0  0  0  0  0  0  0
   -1.4144    0.8104   -0.9170 H   0  0  0  0  0  0  0  0  0  0  0  0
   -0.1576   -1.3866    1.0132 H   0  0  0  0  0  0  0  0  0  0  0  0
    0.7605   -0.0796   -0.0733 H   0  0  0  0  0  0  0  0  0  0  0  0
   -0.1483   -1.2755   -0.7575 H   0  0  0  0  0  0  0  0  0  0  0  0
  1  5  1  0  0  0  0
  2  1  1  0  0  0  0
  2  8  1  0  0  0  0
  3  1  1  0  0  0  0
  4  1  1  0  0  0  0
  6  2  1  0  0  0  0
  6  9  1  0  0  0  0
  6 10  1  0  0  0  0
  7  2  1  0  0  0  0
  9 12  1  0  0  0  0
 11  6  1  0  0  0  0
 13  9  1  0  0  0  0
 14  9  1  0  0  0  0
M  END
$$$$
