butane_opt
 OpenBabel08242015413D

 14 13  0  0  0  0  0  0  0  0999 V2000
   -3.9671    0.2729    0.0484 C   0  0  0  0  0  0  0  0  0  0  0  0
   -2.7018   -0.6280   -0.0154 C   0  0  0  0  0  0  0  0  0  0  0  0
   -4.8358   -0.2999    0.1891 H   0  0  0  0  0  0  0  0  0  0  0  0
   -4.0714    0.9225   -0.8594 H   0  0  0  0  0  0  0  0  0  0  0  0
   -3.8795    0.9154    0.8923 H   0  0  0  0  0  0  0  0  0  0  0  0
   -1.3975    0.1730   -0.0132 C   0  0  0  0  0  0  0  0  0  0  0  0
   -2.7587   -1.2982   -0.8683 H   0  0  0  0  0  0  0  0  0  0  0  0
   -2.6559   -1.2451    0.8542 H   0  0  0  0  0  0  0  0  0  0  0  0
   -0.1481   -0.6807    0.0684 C   0  0  0  0  0  0  0  0  0  0  0  0
   -1.4365    0.8656    0.8197 H   0  0  0  0  0  0  0  0  0  0  0  0
   -1.3596    0.7826   -0.8919 H   0  0  0  0  0  0  0  0  0  0  0  0
   -0.1433   -1.3537    1.0182 H   0  0  0  0  0  0  0  0  0  0  0  0
    0.7843   -0.0624   -0.0007 H   0  0  0  0  0  0  0  0  0  0  0  0
   -0.1078   -1.3327   -0.7785 H   0  0  0  0  0  0  0  0  0  0  0  0
  1  3  1  0  0  0  0
  1  5  1  0  0  0  0
  2  6  1  0  0  0  0
  2  1  1  0  0  0  0
  2  8  1  0  0  0  0
  4  1  1  0  0  0  0
  6  9  1  0  0  0  0
  6 10  1  0  0  0  0
  7  2  1  0  0  0  0
  9 12  1  0  0  0  0
 11  6  1  0  0  0  0
 13  9  1  0  0  0  0
 14  9  1  0  0  0  0
M  END
$$$$
