butane_opt
 OpenBabel08242015413D

 14 13  0  0  0  0  0  0  0  0999 V2000
   -3.9624    0.2683   -0.0147 C   0  0  0  0  0  0  0  0  0  0  0  0
   -2.7022   -0.6241    0.0866 C   0  0  0  0  0  0  0  0  0  0  0  0
   -4.8540   -0.2956   -0.0888 H   0  0  0  0  0  0  0  0  0  0  0  0
   -3.8758    0.8417   -0.9042 H   0  0  0  0  0  0  0  0  0  0  0  0
   -4.1156    0.9543    0.8514 H   0  0  0  0  0  0  0  0  0  0  0  0
   -1.3916    0.1754    0.0403 C   0  0  0  0  0  0  0  0  0  0  0  0
   -2.6697   -1.2269   -0.7234 H   0  0  0  0  0  0  0  0  0  0  0  0
   -2.7459   -1.2632    0.9913 H   0  0  0  0  0  0  0  0  0  0  0  0
   -0.1441   -0.6910   -0.0057 C   0  0  0  0  0  0  0  0  0  0  0  0
   -1.3643    0.9053    0.9263 H   0  0  0  0  0  0  0  0  0  0  0  0
   -1.4372    0.7836   -0.8349 H   0  0  0  0  0  0  0  0  0  0  0  0
   -0.1338   -1.2851    0.8693 H   0  0  0  0  0  0  0  0  0  0  0  0
    0.7510   -0.0822   -0.0278 H   0  0  0  0  0  0  0  0  0  0  0  0
   -0.1724   -1.3542   -0.8903 H   0  0  0  0  0  0  0  0  0  0  0  0
  1  2  1  0  0  0  0
  1  5  1  0  0  0  0
  2  8  1  0  0  0  0
  3  1  1  0  0  0  0
  4  1  1  0  0  0  0
  6  2  1  0  0  0  0
  6 10  1  0  0  0  0
  7  2  1  0  0  0  0
  9  6  1  0  0  0  0
  9 12  1  0  0  0  0
 11  6  1  0  0  0  0
 13  9  1  0  0  0  0
 14  9  1  0  0  0  0
M  END
$$$$
