butane_opt
 OpenBabel08242015413D

 14 13  0  0  0  0  0  0  0  0999 V2000
   -3.9547    0.2682    0.0029 C   0  0  0  0  0  0  0  0  0  0  0  0
   -2.6916   -0.6347    0.0718 C   0  0  0  0  0  0  0  0  0  0  0  0
   -4.8354   -0.2803    0.0462 H   0  0  0  0  0  0  0  0  0  0  0  0
   -4.0232    0.9588   -0.9221 H   0  0  0  0  0  0  0  0  0  0  0  0
   -4.0353    0.9213    0.8208 H   0  0  0  0  0  0  0  0  0  0  0  0
   -1.4016    0.1807    0.0131 C   0  0  0  0  0  0  0  0  0  0  0  0
   -2.6781   -1.3119   -0.7666 H   0  0  0  0  0  0  0  0  0  0  0  0
   -2.7372   -1.2525    0.9493 H   0  0  0  0  0  0  0  0  0  0  0  0
   -0.1592   -0.6858    0.0216 C   0  0  0  0  0  0  0  0  0  0  0  0
   -1.3189    0.8329    0.8542 H   0  0  0  0  0  0  0  0  0  0  0  0
   -1.3941    0.8316   -0.8744 H   0  0  0  0  0  0  0  0  0  0  0  0
   -0.2095   -1.1570    0.8058 H   0  0  0  0  0  0  0  0  0  0  0  0
    0.7699   -0.0781    0.1273 H   0  0  0  0  0  0  0  0  0  0  0  0
   -0.0743   -1.4792   -0.9308 H   0  0  0  0  0  0  0  0  0  0  0  0
  1  3  1  0  0  0  0
  1  2  1  0  0  0  0
  1  5  1  0  0  0  0
  2  8  1  0  0  0  0
  4  1  1  0  0  0  0
  6  9  1  0  0  0  0
  6  2  1  0  0  0  0
  6 10  1  0  0  0  0
  7  2  1  0  0  0  0
  9 13  1  0  0  0  0
  9 12  1  0  0  0  0
 11  6  1  0  0  0  0
 14  9  1  0  0  0  0
M  END
$$$$
