butane_opt
 OpenBabel08242015413D

 14 13  0  0  0  0  0  0  0  0999 V2000
   -3.9364    0.2584   -0.0025 C   0  0  0  0  0  0  0  0  0  0  0  0
   -2.6951   -0.5986    0.0731 C   0  0  0  0  0  0  0  0  0  0  0  0
   -4.8672   -0.3958   -0.0821 H   0  0  0  0  0  0  0  0  0  0  0  0
   -3.8756    0.8594   -0.8949 H   0  0  0  0  0  0  0  0  0  0  0  0
   -3.9781    0.9105    0.8337 H   0  0  0  0  0  0  0  0  0  0  0  0
   -1.4098    0.1964    0.0330 C   0  0  0  0  0  0  0  0  0  0  0  0
   -2.6884   -1.2483   -0.7336 H   0  0  0  0  0  0  0  0  0  0  0  0
   -2.7704   -1.2451    0.9791 H   0  0  0  0  0  0  0  0  0  0  0  0
   -0.1655   -0.7039    0.0095 C   0  0  0  0  0  0  0  0  0  0  0  0
   -1.3930    0.8359    0.8725 H   0  0  0  0  0  0  0  0  0  0  0  0
   -1.3861    0.8402   -0.8540 H   0  0  0  0  0  0  0  0  0  0  0  0
   -0.1086   -1.2706    0.8807 H   0  0  0  0  0  0  0  0  0  0  0  0
    0.7375   -0.1189   -0.0022 H   0  0  0  0  0  0  0  0  0  0  0  0
   -0.2066   -1.4750   -0.9256 H   0  0  0  0  0  0  0  0  0  0  0  0
  1  2  1  0  0  0  0
  1  5  1  0  0  0  0
  2  8  1  0  0  0  0
  3  1  1  0  0  0  0
  4  1  1  0  0  0  0
  6  2  1  0  0  0  0
  6 10  1  0  0  0  0
  7  2  1  0  0  0  0
  9  6  1  0  0  0  0
  9 12  1  0  0  0  0
 11  6  1  0  0  0  0
 13  9  1  0  0  0  0
 14  9  1  0  0  0  0
M  END
$$$$
