14
butane_opt
C  -3.952750   0.261989   0.029066
C  -2.710749  -0.611508   0.022122
H  -4.856417  -0.324603   0.017365
H  -3.994630   0.850813  -0.837758
H  -3.930624   0.946220   0.883094
C  -1.402439   0.187414   0.012202
H  -2.769192  -1.315630  -0.856919
H  -2.732678  -1.181262   0.904420
C  -0.137700  -0.696853   0.037965
H  -1.384511   0.809338   0.818393
H  -1.417672   0.851097  -0.896028
H  -0.115366  -1.383111   0.995124
H   0.761005  -0.103059  -0.021004
H  -0.141686  -1.315947  -0.776156
