14
butane_opt
C  -3.936469   0.253046   0.029154
C  -2.701122  -0.594228   0.021031
H  -4.898983  -0.355812   0.017326
H  -3.926493   0.826884  -0.849639
H  -3.893361   0.957631   0.935094
C  -1.410855   0.187282   0.001697
H  -2.734670  -1.295502  -0.873934
H  -2.744171  -1.168588   0.875592
C  -0.160092  -0.703178   0.042838
H  -1.362084   0.879193   0.872632
H  -1.434759   0.780869  -0.868548
H  -0.086785  -1.442707   1.040275
H   0.724926  -0.130775  -0.114383
H  -0.161951  -1.241428  -0.710090
