butane_opt
 OpenBabel08242015413D

 14 13  0  0  0  0  0  0  0  0999 V2000
   -3.9473    0.2526   -0.0067 C   0  0  0  0  0  0  0  0  0  0  0  0
   -2.6993   -0.5955    0.0494 C   0  0  0  0  0  0  0  0  0  0  0  0
   -4.8964   -0.3916    0.1475 H   0  0  0  0  0  0  0  0  0  0  0  0
   -4.0217    1.0055   -0.9633 H   0  0  0  0  0  0  0  0  0  0  0  0
   -3.9081    0.7643    0.7503 H   0  0  0  0  0  0  0  0  0  0  0  0
   -1.4151    0.2005    0.0509 C   0  0  0  0  0  0  0  0  0  0  0  0
   -2.6916   -1.2792   -0.7853 H   0  0  0  0  0  0  0  0  0  0  0  0
   -2.7375   -1.2568    0.9628 H   0  0  0  0  0  0  0  0  0  0  0  0
   -0.1491   -0.7073    0.0109 C   0  0  0  0  0  0  0  0  0  0  0  0
   -1.3439    0.8769    0.9194 H   0  0  0  0  0  0  0  0  0  0  0  0
   -1.4125    0.8418   -0.8334 H   0  0  0  0  0  0  0  0  0  0  0  0
   -0.0861   -1.2624    0.8632 H   0  0  0  0  0  0  0  0  0  0  0  0
    0.7534   -0.1008    0.0341 H   0  0  0  0  0  0  0  0  0  0  0  0
   -0.1417   -1.4792   -0.9331 H   0  0  0  0  0  0  0  0  0  0  0  0
  1  2  1  0  0  0  0
  1  3  1  0  0  0  0
  1  5  1  0  0  0  0
  2  6  1  0  0  0  0
  2  8  1  0  0  0  0
  4  1  1  0  0  0  0
  6 10  1  0  0  0  0
  7  2  1  0  0  0  0
  9 13  1  0  0  0  0
  9  6  1  0  0  0  0
  9 12  1  0  0  0  0
 11  6  1  0  0  0  0
 14  9  1  0  0  0  0
M  END
$$$$
