14
butane_opt
C  -3.933052   0.246785   0.006072
C  -2.695448  -0.601048   0.034333
H  -4.854970  -0.343247   0.168787
H  -4.049405   1.000217  -0.969029
H  -3.863345   0.819875   0.815145
C  -1.411039   0.198130   0.027629
H  -2.766768  -1.266780  -0.831434
H  -2.700010  -1.268865   0.943990
C  -0.157142  -0.699547   0.027198
H  -1.434035   0.939073   0.904989
H  -1.429742   0.772770  -0.818720
H  -0.118550  -1.315004   0.898434
H   0.723368  -0.131878   0.022033
H  -0.160298  -1.410587  -0.857653
