butane_opt
 OpenBabel08242015413D

 14 13  0  0  0  0  0  0  0  0999 V2000
   -3.9616    0.2761    0.0103 C   0  0  0  0  0  0  0  0  0  0  0  0
   -2.6922   -0.6307    0.0381 C   0  0  0  0  0  0  0  0  0  0  0  0
   -4.8720   -0.3160    0.1641 H   0  0  0  0  0  0  0  0  0  0  0  0
   -4.0532    1.0075   -0.9527 H   0  0  0  0  0  0  0  0  0  0  0  0
   -3.9763    0.8199    0.7947 H   0  0  0  0  0  0  0  0  0  0  0  0
   -1.3935    0.1763    0.0277 C   0  0  0  0  0  0  0  0  0  0  0  0
   -2.7464   -1.3076   -0.8493 H   0  0  0  0  0  0  0  0  0  0  0  0
   -2.7099   -1.2281    0.9076 H   0  0  0  0  0  0  0  0  0  0  0  0
   -0.1502   -0.6883    0.0293 C   0  0  0  0  0  0  0  0  0  0  0  0
   -1.3860    0.8569    0.8871 H   0  0  0  0  0  0  0  0  0  0  0  0
   -1.3937    0.7975   -0.8538 H   0  0  0  0  0  0  0  0  0  0  0  0
   -0.1065   -1.2361    0.8649 H   0  0  0  0  0  0  0  0  0  0  0  0
    0.7879   -0.0674    0.0234 H   0  0  0  0  0  0  0  0  0  0  0  0
   -0.1961   -1.3921   -0.8267 H   0  0  0  0  0  0  0  0  0  0  0  0
  1  2  1  0  0  0  0
  1  3  1  0  0  0  0
  1  5  1  0  0  0  0
  2  8  1  0  0  0  0
  4  1  1  0  0  0  0
  6  9  1  0  0  0  0
  6  2  1  0  0  0  0
  6 10  1  0  0  0  0
  7  2  1  0  0  0  0
  9 12  1  0  0  0  0
 11  6  1  0  0  0  0
 13  9  1  0  0  0  0
 14  9  1  0  0  0  0
M  END
$$$$
