14
butane_opt
C  -3.945636   0.275031   0.044006
C  -2.688855  -0.620933   0.003823
H  -4.855531  -0.317800   0.060980
H  -3.962562   0.810153  -0.799713
H  -3.885532   0.945028   0.929957
C  -1.411084   0.177563  -0.009864
H  -2.698905  -1.340745  -0.895788
H  -2.715059  -1.191027   0.837424
C  -0.165903  -0.688144   0.060532
H  -1.395526   0.802046   0.825321
H  -1.401865   0.833502  -0.932042
H  -0.131858  -1.393114   1.036535
H   0.741419  -0.073122  -0.055244
H  -0.192537  -1.261965  -0.729224
