14
butane_opt
C  -3.942069   0.264968   0.042485
C  -2.715629  -0.606292   0.003455
H  -4.879664  -0.364153   0.130878
H  -3.999263   0.886415  -0.840590
H  -3.894352   0.877795   0.883863
C  -1.400776   0.189866  -0.010180
H  -2.757268  -1.331864  -0.870090
H  -2.720714  -1.207251   0.899782
C  -0.143706  -0.703911   0.050602
H  -1.446795   0.887603   0.838434
H  -1.372425   0.853205  -0.910760
H  -0.167075  -1.367403   1.000162
H   0.751686  -0.117475   0.070930
H  -0.108949  -1.331977  -0.799434
