butane_opt
 OpenBabel08242015413D

 14 13  0  0  0  0  0  0  0  0999 V2000
   -3.9395    0.2554    0.0212 C   0  0  0  0  0  0  0  0  0  0  0  0
   -2.7094   -0.6181    0.0436 C   0  0  0  0  0  0  0  0  0  0  0  0
   -4.8283   -0.2992   -0.1140 H   0  0  0  0  0  0  0  0  0  0  0  0
   -3.9163    0.7720   -0.8221 H   0  0  0  0  0  0  0  0  0  0  0  0
   -3.9929    1.0541    0.9791 H   0  0  0  0  0  0  0  0  0  0  0  0
   -1.4014    0.2030   -0.0099 C   0  0  0  0  0  0  0  0  0  0  0  0
   -2.7192   -1.2367   -0.7679 H   0  0  0  0  0  0  0  0  0  0  0  0
   -2.7268   -1.2760    0.9579 H   0  0  0  0  0  0  0  0  0  0  0  0
   -0.1603   -0.7065    0.0458 C   0  0  0  0  0  0  0  0  0  0  0  0
   -1.4159    0.8748    0.8586 H   0  0  0  0  0  0  0  0  0  0  0  0
   -1.3854    0.8213   -0.9040 H   0  0  0  0  0  0  0  0  0  0  0  0
   -0.1211   -1.3308    0.9329 H   0  0  0  0  0  0  0  0  0  0  0  0
    0.7596   -0.0941   -0.0448 H   0  0  0  0  0  0  0  0  0  0  0  0
   -0.1510   -1.3621   -0.8378 H   0  0  0  0  0  0  0  0  0  0  0  0
  1  2  1  0  0  0  0
  1  5  1  0  0  0  0
  2  8  1  0  0  0  0
  3  1  1  0  0  0  0
  4  1  1  0  0  0  0
  6  2  1  0  0  0  0
  6  9  1  0  0  0  0
  6 10  1  0  0  0  0
  7  2  1  0  0  0  0
  9 12  1  0  0  0  0
 11  6  1  0  0  0  0
 13  9  1  0  0  0  0
 14  9  1  0  0  0  0
M  END
$$$$
