butane_opt
 OpenBabel08242015413D

 14 13  0  0  0  0  0  0  0  0999 V2000
   -3.9554    0.2726    0.0248 C   0  0  0  0  0  0  0  0  0  0  0  0
   -2.6991   -0.6332    0.0281 C   0  0  0  0  0  0  0  0  0  0  0  0
   -4.8862   -0.3241    0.0864 H   0  0  0  0  0  0  0  0  0  0  0  0
   -4.0249    0.9142   -0.8577 H   0  0  0  0  0  0  0  0  0  0  0  0
   -3.9391    0.9490    0.8995 H   0  0  0  0  0  0  0  0  0  0  0  0
   -1.3952    0.1878   -0.0141 C   0  0  0  0  0  0  0  0  0  0  0  0
   -2.7419   -1.2704   -0.7998 H   0  0  0  0  0  0  0  0  0  0  0  0
   -2.6720   -1.2998    0.9497 H   0  0  0  0  0  0  0  0  0  0  0  0
   -0.1591   -0.6847    0.0510 C   0  0  0  0  0  0  0  0  0  0  0  0
   -1.3949    0.8244    0.8392 H   0  0  0  0  0  0  0  0  0  0  0  0
   -1.3755    0.8060   -0.8975 H   0  0  0  0  0  0  0  0  0  0  0  0
   -0.1733   -1.2178    0.8838 H   0  0  0  0  0  0  0  0  0  0  0  0
    0.7332   -0.0932    0.1135 H   0  0  0  0  0  0  0  0  0  0  0  0
   -0.0484   -1.4707   -0.8739 H   0  0  0  0  0  0  0  0  0  0  0  0
  1  2  1  0  0  0  0
  1  3  1  0  0  0  0
  1  5  1  0  0  0  0
  2  8  1  0  0  0  0
  4  1  1  0  0  0  0
  6  2  1  0  0  0  0
  6  9  1  0  0  0  0
  6 10  1  0  0  0  0
  7  2  1  0  0  0  0
  9 13  1  0  0  0  0
  9 12  1  0  0  0  0
 11  6  1  0  0  0  0
 14  9  1  0  0  0  0
M  END
$$$$
