14
butane_opt
C  -3.926400   0.251756   0.003287
C  -2.706870  -0.601634   0.039372
H  -4.839642  -0.328421   0.191740
H  -4.003927   0.972643  -0.964499
H  -3.885010   0.833330   0.783582
C  -1.417649   0.196461   0.041176
H  -2.720737  -1.291335  -0.816929
H  -2.747744  -1.214543   0.930125
C  -0.158403  -0.703986   0.017319
H  -1.369698   0.851661   0.858013
H  -1.390372   0.819320  -0.837057
H  -0.129489  -1.286887   0.898175
H   0.749772  -0.132819   0.055814
H  -0.167591  -1.407702  -0.880527
