butane_opt
 OpenBabel08242015413D

 14 13  0  0  0  0  0  0  0  0999 V2000
   -3.9480    0.2501   -0.0083 C   0  0  0  0  0  0  0  0  0  0  0  0
   -2.7124   -0.5971    0.0746 C   0  0  0  0  0  0  0  0  0  0  0  0
   -4.8435   -0.3386    0.0320 H   0  0  0  0  0  0  0  0  0  0  0  0
   -3.9279    0.9087   -0.9361 H   0  0  0  0  0  0  0  0  0  0  0  0
   -4.0092    0.8815    0.8082 H   0  0  0  0  0  0  0  0  0  0  0  0
   -1.4054    0.2021    0.0180 C   0  0  0  0  0  0  0  0  0  0  0  0
   -2.7592   -1.2379   -0.7467 H   0  0  0  0  0  0  0  0  0  0  0  0
   -2.7565   -1.3007    1.0561 H   0  0  0  0  0  0  0  0  0  0  0  0
   -0.1372   -0.7075    0.0068 C   0  0  0  0  0  0  0  0  0  0  0  0
   -1.3320    0.9154    0.9164 H   0  0  0  0  0  0  0  0  0  0  0  0
   -1.4269    0.7778   -0.8313 H   0  0  0  0  0  0  0  0  0  0  0  0
   -0.1458   -1.1931    0.8182 H   0  0  0  0  0  0  0  0  0  0  0  0
    0.7452   -0.1542    0.1402 H   0  0  0  0  0  0  0  0  0  0  0  0
   -0.1201   -1.5071   -0.9242 H   0  0  0  0  0  0  0  0  0  0  0  0
  1  3  1  0  0  0  0
  1  2  1  0  0  0  0
  1  5  1  0  0  0  0
  2  8  1  0  0  0  0
  4  1  1  0  0  0  0
  6  2  1  0  0  0  0
  6 10  1  0  0  0  0
  7  2  1  0  0  0  0
  9  6  1  0  0  0  0
  9 13  1  0  0  0  0
  9 12  1  0  0  0  0
 11  6  1  0  0  0  0
 14  9  1  0  0  0  0
M  END
$$$$
