butane_opt
 OpenBabel08242015413D

 14 13  0  0  0  0  0  0  0  0999 V2000
   -3.9207    0.2550    0.0165 C   0  0  0  0  0  0  0  0  0  0  0  0
   -2.6986   -0.6065    0.0408 C   0  0  0  0  0  0  0  0  0  0  0  0
   -4.8598   -0.3926    0.0403 H   0  0  0  0  0  0  0  0  0  0  0  0
   -3.9504    0.8248   -0.8485 H   0  0  0  0  0  0  0  0  0  0  0  0
   -3.9627    0.9907    0.9118 H   0  0  0  0  0  0  0  0  0  0  0  0
   -1.4208    0.1997   -0.0034 C   0  0  0  0  0  0  0  0  0  0  0  0
   -2.7608   -1.2552   -0.7797 H   0  0  0  0  0  0  0  0  0  0  0  0
   -2.7074   -1.2806    0.9524 H   0  0  0  0  0  0  0  0  0  0  0  0
   -0.1633   -0.7042    0.0396 C   0  0  0  0  0  0  0  0  0  0  0  0
   -1.4252    0.8862    0.8316 H   0  0  0  0  0  0  0  0  0  0  0  0
   -1.3961    0.8379   -0.9158 H   0  0  0  0  0  0  0  0  0  0  0  0
   -0.1473   -1.2674    0.9020 H   0  0  0  0  0  0  0  0  0  0  0  0
    0.7311   -0.1376    0.0856 H   0  0  0  0  0  0  0  0  0  0  0  0
   -0.0968   -1.4154   -0.8619 H   0  0  0  0  0  0  0  0  0  0  0  0
  1  3  1  0  0  0  0
  1  2  1  0  0  0  0
  1  5  1  0  0  0  0
  2  8  1  0  0  0  0
  4  1  1  0  0  0  0
  6  9  1  0  0  0  0
  6  2  1  0  0  0  0
  6 10  1  0  0  0  0
  7  2  1  0  0  0  0
  9 13  1  0  0  0  0
  9 12  1  0  0  0  0
 11  6  1  0  0  0  0
 14  9  1  0  0  0  0
M  END
$$$$
