butane_opt
 OpenBabel08242015413D

 14 13  0  0  0  0  0  0  0  0999 V2000
   -3.9548    0.2703    0.0013 C   0  0  0  0  0  0  0  0  0  0  0  0
   -2.7054   -0.6401    0.0632 C   0  0  0  0  0  0  0  0  0  0  0  0
   -4.8236   -0.2605    0.0530 H   0  0  0  0  0  0  0  0  0  0  0  0
   -4.0169    1.0125   -0.9786 H   0  0  0  0  0  0  0  0  0  0  0  0
   -3.9827    0.9015    0.8120 H   0  0  0  0  0  0  0  0  0  0  0  0
   -1.3927    0.1822    0.0321 C   0  0  0  0  0  0  0  0  0  0  0  0
   -2.7083   -1.2838   -0.7833 H   0  0  0  0  0  0  0  0  0  0  0  0
   -2.7181   -1.2983    0.9822 H   0  0  0  0  0  0  0  0  0  0  0  0
   -0.1574   -0.6880    0.0067 C   0  0  0  0  0  0  0  0  0  0  0  0
   -1.3040    0.8924    0.8991 H   0  0  0  0  0  0  0  0  0  0  0  0
   -1.4226    0.8022   -0.8632 H   0  0  0  0  0  0  0  0  0  0  0  0
   -0.2055   -1.2045    0.8620 H   0  0  0  0  0  0  0  0  0  0  0  0
    0.7834   -0.0777    0.1125 H   0  0  0  0  0  0  0  0  0  0  0  0
   -0.1045   -1.4444   -0.9132 H   0  0  0  0  0  0  0  0  0  0  0  0
  1  3  1  0  0  0  0
  1  2  1  0  0  0  0
  1  5  1  0  0  0  0
  2  8  1  0  0  0  0
  4  1  1  0  0  0  0
  6  2  1  0  0  0  0
  6 10  1  0  0  0  0
  7  2  1  0  0  0  0
  9  6  1  0  0  0  0
  9 13  1  0  0  0  0
  9 12  1  0  0  0  0
 11  6  1  0  0  0  0
 14  9  1  0  0  0  0
M  END
$$$$
