14
butane_opt
C  -3.945278   0.266666   0.053067
C  -2.703357  -0.624380  -0.000839
H  -4.833813  -0.278363   0.152199
H  -4.090487   0.963127  -0.881319
H  -3.948239   0.867765   0.876135
C  -1.406586   0.184943  -0.015815
H  -2.748524  -1.408587  -0.913395
H  -2.685091  -1.199287   0.867931
C  -0.152847  -0.687230   0.058924
H  -1.406386   0.832380   0.835565
H  -1.343545   0.825456  -0.935681
H  -0.160167  -1.325740   0.979205
H   0.765618  -0.093390   0.078839
H  -0.079260  -1.324025  -0.771649
