butane_opt
 OpenBabel08242015413D

 14 13  0  0  0  0  0  0  0  0999 V2000
   -3.9413    0.2595   -0.0066 C   0  0  0  0  0  0  0  0  0  0  0  0
   -2.7001   -0.5972    0.0658 C   0  0  0  0  0  0  0  0  0  0  0  0
   -4.8963   -0.3524    0.1201 H   0  0  0  0  0  0  0  0  0  0  0  0
   -3.9262    0.9419   -0.9514 H   0  0  0  0  0  0  0  0  0  0  0  0
   -3.9385    0.8274    0.7789 H   0  0  0  0  0  0  0  0  0  0  0  0
   -1.4079    0.1877    0.0317 C   0  0  0  0  0  0  0  0  0  0  0  0
   -2.7375   -1.3214   -0.8263 H   0  0  0  0  0  0  0  0  0  0  0  0
   -2.7377   -1.2332    0.9714 H   0  0  0  0  0  0  0  0  0  0  0  0
   -0.1623   -0.7013    0.0072 C   0  0  0  0  0  0  0  0  0  0  0  0
   -1.3661    0.8943    0.9281 H   0  0  0  0  0  0  0  0  0  0  0  0
   -1.4119    0.7867   -0.8229 H   0  0  0  0  0  0  0  0  0  0  0  0
   -0.1000   -1.2706    0.8708 H   0  0  0  0  0  0  0  0  0  0  0  0
    0.7367   -0.1070    0.0405 H   0  0  0  0  0  0  0  0  0  0  0  0
   -0.1076   -1.4207   -0.8585 H   0  0  0  0  0  0  0  0  0  0  0  0
  1  2  1  0  0  0  0
  1  3  1  0  0  0  0
  1  5  1  0  0  0  0
  2  8  1  0  0  0  0
  4  1  1  0  0  0  0
  6  2  1  0  0  0  0
  6 10  1  0  0  0  0
  7  2  1  0  0  0  0
  9  6  1  0  0  0  0
  9 13  1  0  0  0  0
  9 12  1  0  0  0  0
 11  6  1  0  0  0  0
 14  9  1  0  0  0  0
M  END
$$$$
