14
butane_opt
C  -3.931950   0.261494   0.049173
C  -2.702001  -0.612250   0.015987
H  -4.817945  -0.295282   0.045097
H  -3.981345   0.868780  -0.840964
H  -3.972731   0.974818   0.925284
C  -1.402114   0.178762  -0.026548
H  -2.712798  -1.294432  -0.844260
H  -2.704291  -1.261100   0.917436
C  -0.177705  -0.693623   0.062300
H  -1.424697   0.837223   0.770641
H  -1.339394   0.846952  -0.946518
H  -0.209248  -1.251226   0.940904
H   0.787541  -0.064360   0.102587
H  -0.085945  -1.443867  -0.846946
