14
butane_opt
C  -3.957254   0.259632   0.030931
C  -2.705929  -0.609033   0.028386
H  -4.888764  -0.329837  -0.073701
H  -3.945039   0.740658  -0.774505
H  -3.995820   1.051117   0.958955
C  -1.400412   0.202305  -0.008535
H  -2.682604  -1.292327  -0.794254
H  -2.748744  -1.268757   0.943044
C  -0.142535  -0.704877   0.040005
H  -1.376081   0.811125   0.799253
H  -1.361045   0.832002  -0.908256
H  -0.137844  -1.363155   0.971205
H   0.746244  -0.118181   0.017451
H  -0.150190  -1.314856  -0.765948
