butane_opt
 OpenBabel08242015413D

 14 13  0  0  0  0  0  0  0  0999 V2000
   -3.9586    0.2696    0.0005 C   0  0  0  0  0  0  0  0  0  0  0  0
   -2.6908   -0.6381    0.0566 C   0  0  0  0  0  0  0  0  0  0  0  0
   -4.8233   -0.2760    0.0278 H   0  0  0  0  0  0  0  0  0  0  0  0
   -3.9959    0.9085   -0.9052 H   0  0  0  0  0  0  0  0  0  0  0  0
   -3.9749    0.9623    0.8728 H   0  0  0  0  0  0  0  0  0  0  0  0
   -1.3996    0.1850    0.0197 C   0  0  0  0  0  0  0  0  0  0  0  0
   -2.6743   -1.2553   -0.7581 H   0  0  0  0  0  0  0  0  0  0  0  0
   -2.7925   -1.3186    1.0021 H   0  0  0  0  0  0  0  0  0  0  0  0
   -0.1571   -0.6910    0.0196 C   0  0  0  0  0  0  0  0  0  0  0  0
   -1.3734    0.8811    0.9078 H   0  0  0  0  0  0  0  0  0  0  0  0
   -1.3960    0.8069   -0.8677 H   0  0  0  0  0  0  0  0  0  0  0  0
   -0.1787   -1.2060    0.8553 H   0  0  0  0  0  0  0  0  0  0  0  0
    0.7568   -0.0892    0.0417 H   0  0  0  0  0  0  0  0  0  0  0  0
   -0.1045   -1.3883   -0.9001 H   0  0  0  0  0  0  0  0  0  0  0  0
  1  3  1  0  0  0  0
  1  2  1  0  0  0  0
  1  5  1  0  0  0  0
  2  8  1  0  0  0  0
  4  1  1  0  0  0  0
  6  2  1  0  0  0  0
  6 10  1  0  0  0  0
  7  2  1  0  0  0  0
  9  6  1  0  0  0  0
  9 13  1  0  0  0  0
  9 12  1  0  0  0  0
 11  6  1  0  0  0  0
 14  9  1  0  0  0  0
M  END
$$$$
