14
butane_opt
C  -3.927644   0.256940  -0.017940
C  -2.695022  -0.594979   0.083042
H  -4.877874  -0.399792  -0.074085
H  -3.893103   0.759257  -0.867873
H  -4.012908   1.010772   0.889631
C  -1.418223   0.190605   0.032604
H  -2.713698  -1.245340  -0.744403
H  -2.757595  -1.294102   1.014895
C  -0.156254  -0.709422   0.004348
H  -1.397798   0.905988   0.885681
H  -1.438793   0.824663  -0.868863
H  -0.121804  -1.279885   0.854718
H   0.756676  -0.101512  -0.020220
H  -0.187954  -1.376382  -0.843252
