butane_opt
 OpenBabel08242015413D

 14 13  0  0  0  0  0  0  0  0999 V2000
   -3.9437    0.2764    0.0393 C   0  0  0  0  0  0  0  0  0  0  0  0
   -2.7101   -0.6317    0.0173 C   0  0  0  0  0  0  0  0  0  0  0  0
   -4.8568   -0.3247    0.1170 H   0  0  0  0  0  0  0  0  0  0  0  0
   -4.0509    0.9727   -0.8956 H   0  0  0  0  0  0  0  0  0  0  0  0
   -3.9483    0.8613    0.8423 H   0  0  0  0  0  0  0  0  0  0  0  0
   -1.3958    0.1826   -0.0033 C   0  0  0  0  0  0  0  0  0  0  0  0
   -2.7265   -1.3426   -0.8803 H   0  0  0  0  0  0  0  0  0  0  0  0
   -2.6402   -1.1932    0.8661 H   0  0  0  0  0  0  0  0  0  0  0  0
   -0.1649   -0.6864    0.0475 C   0  0  0  0  0  0  0  0  0  0  0  0
   -1.3814    0.8538    0.8355 H   0  0  0  0  0  0  0  0  0  0  0  0
   -1.3243    0.7852   -0.8816 H   0  0  0  0  0  0  0  0  0  0  0  0
   -0.1442   -1.3216    0.9951 H   0  0  0  0  0  0  0  0  0  0  0  0
    0.7398   -0.0812    0.0322 H   0  0  0  0  0  0  0  0  0  0  0  0
   -0.1168   -1.3752   -0.8162 H   0  0  0  0  0  0  0  0  0  0  0  0
  1  3  1  0  0  0  0
  1  5  1  0  0  0  0
  2  1  1  0  0  0  0
  2  8  1  0  0  0  0
  4  1  1  0  0  0  0
  6  2  1  0  0  0  0
  6  9  1  0  0  0  0
  6 10  1  0  0  0  0
  7  2  1  0  0  0  0
  9 12  1  0  0  0  0
 11  6  1  0  0  0  0
 13  9  1  0  0  0  0
 14  9  1  0  0  0  0
M  END
$$$$
