14
butane_opt
C  -3.953119   0.253548  -0.003881
C  -2.705523  -0.602945   0.065799
H  -4.877377  -0.356194   0.059749
H  -3.999944   0.936327  -0.933066
H  -3.949465   0.894149   0.832383
C  -1.401736   0.188360   0.021524
H  -2.723615  -1.218082  -0.728318
H  -2.767510  -1.287051   1.006189
C  -0.144121  -0.700390   0.006377
H  -1.383610   0.927576   0.893355
H  -1.371646   0.820284  -0.868330
H  -0.187734  -1.206884   0.842767
H   0.766447  -0.127308   0.151609
H  -0.066612  -1.527895  -0.917915
