butane_opt
 OpenBabel08242015413D

 14 13  0  0  0  0  0  0  0  0999 V2000
   -3.9352    0.2549    0.0542 C   0  0  0  0  0  0  0  0  0  0  0  0
   -2.6987   -0.5951   -0.0041 C   0  0  0  0  0  0  0  0  0  0  0  0
   -4.8727   -0.3915    0.1265 H   0  0  0  0  0  0  0  0  0  0  0  0
   -3.9672    0.8953   -0.8660 H   0  0  0  0  0  0  0  0  0  0  0  0
   -3.8998    0.8849    0.8934 H   0  0  0  0  0  0  0  0  0  0  0  0
   -1.4153    0.1884   -0.0267 C   0  0  0  0  0  0  0  0  0  0  0  0
   -2.7350   -1.2961   -0.8677 H   0  0  0  0  0  0  0  0  0  0  0  0
   -2.6535   -1.2364    0.9076 H   0  0  0  0  0  0  0  0  0  0  0  0
   -0.1598   -0.7013    0.0635 C   0  0  0  0  0  0  0  0  0  0  0  0
   -1.4112    0.8921    0.8542 H   0  0  0  0  0  0  0  0  0  0  0  0
   -1.4064    0.8036   -0.9229 H   0  0  0  0  0  0  0  0  0  0  0  0
   -0.1852   -1.3183    0.9604 H   0  0  0  0  0  0  0  0  0  0  0  0
    0.7211   -0.1411    0.1028 H   0  0  0  0  0  0  0  0  0  0  0  0
   -0.0953   -1.3328   -0.7919 H   0  0  0  0  0  0  0  0  0  0  0  0
  1  3  1  0  0  0  0
  1  5  1  0  0  0  0
  2  1  1  0  0  0  0
  2  8  1  0  0  0  0
  4  1  1  0  0  0  0
  6  2  1  0  0  0  0
  6  9  1  0  0  0  0
  6 10  1  0  0  0  0
  7  2  1  0  0  0  0
  9 13  1  0  0  0  0
  9 12  1  0  0  0  0
 11  6  1  0  0  0  0
 14  9  1  0  0  0  0
M  END
$$$$
