butane_opt
 OpenBabel08242015413D

 14 13  0  0  0  0  0  0  0  0999 V2000
   -3.9556    0.2769    0.0309 C   0  0  0  0  0  0  0  0  0  0  0  0
   -2.6978   -0.6308    0.0160 C   0  0  0  0  0  0  0  0  0  0  0  0
   -4.8500   -0.2979    0.1600 H   0  0  0  0  0  0  0  0  0  0  0  0
   -4.0611    0.9454   -0.9012 H   0  0  0  0  0  0  0  0  0  0  0  0
   -3.9378    0.8979    0.8586 H   0  0  0  0  0  0  0  0  0  0  0  0
   -1.3989    0.1658    0.0031 C   0  0  0  0  0  0  0  0  0  0  0  0
   -2.7343   -1.2829   -0.8196 H   0  0  0  0  0  0  0  0  0  0  0  0
   -2.7099   -1.2483    0.8566 H   0  0  0  0  0  0  0  0  0  0  0  0
   -0.1558   -0.6784    0.0396 C   0  0  0  0  0  0  0  0  0  0  0  0
   -1.4246    0.8736    0.8751 H   0  0  0  0  0  0  0  0  0  0  0  0
   -1.3783    0.7674   -0.8751 H   0  0  0  0  0  0  0  0  0  0  0  0
   -0.1852   -1.3212    0.9482 H   0  0  0  0  0  0  0  0  0  0  0  0
    0.8040   -0.0492    0.0433 H   0  0  0  0  0  0  0  0  0  0  0  0
   -0.0653   -1.3441   -0.7896 H   0  0  0  0  0  0  0  0  0  0  0  0
  1  3  1  0  0  0  0
  1  5  1  0  0  0  0
  2  1  1  0  0  0  0
  2  8  1  0  0  0  0
  4  1  1  0  0  0  0
  6  2  1  0  0  0  0
  6  9  1  0  0  0  0
  6 10  1  0  0  0  0
  7  2  1  0  0  0  0
  9 13  1  0  0  0  0
  9 12  1  0  0  0  0
 11  6  1  0  0  0  0
 14  9  1  0  0  0  0
M  END
$$$$
