14
butane_opt
C  -3.935750   0.266181  -0.000844
C  -2.698280  -0.608100   0.045934
H  -4.871072  -0.361042   0.018485
H  -3.953694   0.853490  -0.884770
H  -3.970887   0.932644   0.850083
C  -1.402063   0.188202   0.039099
H  -2.758920  -1.305660  -0.801005
H  -2.722077  -1.228083   0.940341
C  -0.164859  -0.704816   0.027327
H  -1.405256   0.879590   0.896702
H  -1.406440   0.822820  -0.860011
H  -0.078662  -1.372015   0.955354
H   0.789802  -0.063572  -0.156447
H  -0.235871  -1.326243  -0.856935
