14
butane_opt
C  -3.948913   0.274033   0.039029
C  -2.706796  -0.617102   0.028531
H  -4.857155  -0.328096   0.048354
H  -3.996706   0.881741  -0.816941
H  -3.986164   0.972638   0.916605
C  -1.400927   0.168138  -0.038835
H  -2.769939  -1.308346  -0.816791
H  -2.680922  -1.275022   0.932619
C  -0.153818  -0.687737   0.056289
H  -1.404827   0.869371   0.836997
H  -1.311089   0.791236  -0.915474
H  -0.238593  -1.225698   0.901033
H   0.789683  -0.088781   0.142774
H  -0.044465  -1.406072  -0.824373
