butane_opt
 OpenBabel08242015413D

 14 13  0  0  0  0  0  0  0  0999 V2000
   -3.9361    0.2463   -0.0013 C   0  0  0  0  0  0  0  0  0  0  0  0
   -2.7009   -0.5942    0.0628 C   0  0  0  0  0  0  0  0  0  0  0  0
   -4.8798   -0.3453    0.0532 H   0  0  0  0  0  0  0  0  0  0  0  0
   -3.9324    0.9393   -0.9670 H   0  0  0  0  0  0  0  0  0  0  0  0
   -3.9606    0.8747    0.8359 H   0  0  0  0  0  0  0  0  0  0  0  0
   -1.4211    0.1940    0.0246 C   0  0  0  0  0  0  0  0  0  0  0  0
   -2.6997   -1.2172   -0.7208 H   0  0  0  0  0  0  0  0  0  0  0  0
   -2.7600   -1.2961    1.0111 H   0  0  0  0  0  0  0  0  0  0  0  0
   -0.1467   -0.7023    0.0121 C   0  0  0  0  0  0  0  0  0  0  0  0
   -1.3919    0.8821    0.8829 H   0  0  0  0  0  0  0  0  0  0  0  0
   -1.4042    0.7813   -0.8497 H   0  0  0  0  0  0  0  0  0  0  0  0
   -0.1353   -1.2008    0.8121 H   0  0  0  0  0  0  0  0  0  0  0  0
    0.7437   -0.1292    0.1453 H   0  0  0  0  0  0  0  0  0  0  0  0
   -0.1357   -1.4923   -0.9555 H   0  0  0  0  0  0  0  0  0  0  0  0
  1  3  1  0  0  0  0
  1  2  1  0  0  0  0
  1  5  1  0  0  0  0
  2  8  1  0  0  0  0
  4  1  1  0  0  0  0
  6  2  1  0  0  0  0
  6 10  1  0  0  0  0
  7  2  1  0  0  0  0
  9  6  1  0  0  0  0
  9 13  1  0  0  0  0
  9 12  1  0  0  0  0
 11  6  1  0  0  0  0
 14  9  1  0  0  0  0
M  END
$$$$
