14
butane_opt
C  -3.958318   0.264216   0.053101
C  -2.709048  -0.617459  -0.007434
H  -4.856112  -0.313470   0.146235
H  -4.061550   0.941608  -0.900754
H  -3.898269   0.939344   0.902511
C  -1.391858   0.183513  -0.021237
H  -2.799822  -1.357638  -0.886293
H  -2.645442  -1.222956   0.856843
C  -0.146656  -0.700072   0.066873
H  -1.395675   0.899806   0.853283
H  -1.361859   0.803315  -0.906391
H  -0.174583  -1.359386   0.999889
H   0.771690  -0.062542   0.015037
H  -0.129092  -1.295068  -0.740917
