butane_opt
 OpenBabel08242015413D

 14 13  0  0  0  0  0  0  0  0999 V2000
   -3.9541    0.2519   -0.0062 C   0  0  0  0  0  0  0  0  0  0  0  0
   -2.7082   -0.6080    0.0424 C   0  0  0  0  0  0  0  0  0  0  0  0
   -4.8411   -0.3353    0.2094 H   0  0  0  0  0  0  0  0  0  0  0  0
   -4.0201    1.0096   -0.9938 H   0  0  0  0  0  0  0  0  0  0  0  0
   -3.9114    0.8587    0.7955 H   0  0  0  0  0  0  0  0  0  0  0  0
   -1.4015    0.1976    0.0411 C   0  0  0  0  0  0  0  0  0  0  0  0
   -2.7239   -1.2652   -0.7764 H   0  0  0  0  0  0  0  0  0  0  0  0
   -2.7101   -1.3125    0.9727 H   0  0  0  0  0  0  0  0  0  0  0  0
   -0.1480   -0.7036    0.0143 C   0  0  0  0  0  0  0  0  0  0  0  0
   -1.3886    0.9311    0.9216 H   0  0  0  0  0  0  0  0  0  0  0  0
   -1.4111    0.7910   -0.8264 H   0  0  0  0  0  0  0  0  0  0  0  0
   -0.1272   -1.2493    0.8620 H   0  0  0  0  0  0  0  0  0  0  0  0
    0.7860   -0.1102    0.0509 H   0  0  0  0  0  0  0  0  0  0  0  0
   -0.1311   -1.4380   -0.8917 H   0  0  0  0  0  0  0  0  0  0  0  0
  1  2  1  0  0  0  0
  1  3  1  0  0  0  0
  1  5  1  0  0  0  0
  2  8  1  0  0  0  0
  4  1  1  0  0  0  0
  6  2  1  0  0  0  0
  6 10  1  0  0  0  0
  7  2  1  0  0  0  0
  9  6  1  0  0  0  0
  9 13  1  0  0  0  0
  9 12  1  0  0  0  0
 11  6  1  0  0  0  0
 14  9  1  0  0  0  0
M  END
$$$$
