14
butane_opt
C  -3.942764   0.250280   0.041466
C  -2.695096  -0.596823   0.017154
H  -4.900253  -0.379873  -0.038440
H  -3.864526   0.763394  -0.786007
H  -3.947079   1.030371   1.002401
C  -1.406814   0.191795  -0.021851
H  -2.729285  -1.275842  -0.847659
H  -2.677399  -1.224933   0.899844
C  -0.165366  -0.706732   0.053867
H  -1.447194   0.885201   0.826114
H  -1.393037   0.885632  -0.934294
H  -0.149621  -1.412756   1.012222
H   0.735287  -0.112696  -0.001615
H  -0.123492  -1.305943  -0.761477
