14
butane_opt
C  -3.948257   0.255822  -0.018925
C  -2.705863  -0.616767   0.084939
H  -4.872785  -0.364098  -0.118733
H  -3.866315   0.843822  -0.894293
H  -4.051797   0.997081   0.865606
C  -1.407307   0.203242   0.051646
H  -2.691760  -1.242433  -0.712799
H  -2.693473  -1.288824   0.998776
C  -0.149491  -0.700369  -0.001792
H  -1.370295   0.846186   0.864889
H  -1.400758   0.855964  -0.855849
H  -0.072422  -1.265770   0.868397
H   0.706555  -0.137863  -0.052817
H  -0.169680  -1.433106  -0.918546
