butane_opt
 OpenBabel08242015413D

 14 13  0  0  0  0  0  0  0  0999 V2000
   -3.9425    0.2559    0.0547 C   0  0  0  0  0  0  0  0  0  0  0  0
   -2.7055   -0.6022    0.0067 C   0  0  0  0  0  0  0  0  0  0  0  0
   -4.8665   -0.3375    0.1028 H   0  0  0  0  0  0  0  0  0  0  0  0
   -4.0194    0.8844   -0.8609 H   0  0  0  0  0  0  0  0  0  0  0  0
   -3.9390    0.9293    0.9152 H   0  0  0  0  0  0  0  0  0  0  0  0
   -1.3975    0.1918   -0.0248 C   0  0  0  0  0  0  0  0  0  0  0  0
   -2.7715   -1.3257   -0.8896 H   0  0  0  0  0  0  0  0  0  0  0  0
   -2.7357   -1.2129    0.8561 H   0  0  0  0  0  0  0  0  0  0  0  0
   -0.1487   -0.7024    0.0630 C   0  0  0  0  0  0  0  0  0  0  0  0
   -1.3985    0.8155    0.7942 H   0  0  0  0  0  0  0  0  0  0  0  0
   -1.4216    0.8705   -0.9524 H   0  0  0  0  0  0  0  0  0  0  0  0
   -0.2301   -1.3075    0.9791 H   0  0  0  0  0  0  0  0  0  0  0  0
    0.7517   -0.1067    0.1117 H   0  0  0  0  0  0  0  0  0  0  0  0
   -0.0562   -1.4001   -0.8111 H   0  0  0  0  0  0  0  0  0  0  0  0
  1  3  1  0  0  0  0
  1  5  1  0  0  0  0
  2  1  1  0  0  0  0
  2  8  1  0  0  0  0
  4  1  1  0  0  0  0
  6  2  1  0  0  0  0
  6  9  1  0  0  0  0
  6 10  1  0  0  0  0
  7  2  1  0  0  0  0
  9 13  1  0  0  0  0
  9 12  1  0  0  0  0
 11  6  1  0  0  0  0
 14  9  1  0  0  0  0
M  END
$$$$
