14
butane_opt
C  -3.930958   0.253577   0.008186
C  -2.705790  -0.597291   0.064469
H  -4.874757  -0.354083   0.027800
H  -3.967789   0.927766  -0.937182
H  -3.978876   0.851564   0.820877
C  -1.401542   0.189609   0.015913
H  -2.770039  -1.280874  -0.782527
H  -2.713409  -1.206616   0.959328
C  -0.154269  -0.708040   0.019163
H  -1.437713   0.879992   0.879238
H  -1.413023   0.815324  -0.893566
H  -0.162714  -1.211235   0.832708
H   0.733692  -0.118229   0.116001
H  -0.116899  -1.438876  -0.897696
