butane_opt
 OpenBabel08242015413D

 14 13  0  0  0  0  0  0  0  0999 V2000
   -3.9269    0.2586    0.0089 C   0  0  0  0  0  0  0  0  0  0  0  0
   -2.7078   -0.5934    0.0381 C   0  0  0  0  0  0  0  0  0  0  0  0
   -4.8512   -0.3720    0.0163 H   0  0  0  0  0  0  0  0  0  0  0  0
   -3.9355    0.8545   -0.8666 H   0  0  0  0  0  0  0  0  0  0  0  0
   -3.9536    0.8920    0.8490 H   0  0  0  0  0  0  0  0  0  0  0  0
   -1.4122    0.1829    0.0231 C   0  0  0  0  0  0  0  0  0  0  0  0
   -2.7039   -1.2748   -0.7778 H   0  0  0  0  0  0  0  0  0  0  0  0
   -2.7637   -1.2527    0.9600 H   0  0  0  0  0  0  0  0  0  0  0  0
   -0.1577   -0.7011    0.0232 C   0  0  0  0  0  0  0  0  0  0  0  0
   -1.4390    0.9363    0.9256 H   0  0  0  0  0  0  0  0  0  0  0  0
   -1.4357    0.7839   -0.8470 H   0  0  0  0  0  0  0  0  0  0  0  0
   -0.0485   -1.3783    0.9484 H   0  0  0  0  0  0  0  0  0  0  0  0
    0.7658   -0.1084   -0.0679 H   0  0  0  0  0  0  0  0  0  0  0  0
   -0.2065   -1.3132   -0.8129 H   0  0  0  0  0  0  0  0  0  0  0  0
  1  3  1  0  0  0  0
  1  2  1  0  0  0  0
  1  5  1  0  0  0  0
  2  8  1  0  0  0  0
  4  1  1  0  0  0  0
  6  9  1  0  0  0  0
  6  2  1  0  0  0  0
  6 10  1  0  0  0  0
  7  2  1  0  0  0  0
  9 12  1  0  0  0  0
 11  6  1  0  0  0  0
 13  9  1  0  0  0  0
 14  9  1  0  0  0  0
M  END
$$$$
