14
butane_opt
C  -3.954167   0.263940   0.025919
C  -2.700932  -0.613630   0.026518
H  -4.925181  -0.378732  -0.009271
H  -3.968549   0.856525  -0.823315
H  -3.943409   0.932212   0.894024
C  -1.406558   0.193764   0.010491
H  -2.711077  -1.309827  -0.855430
H  -2.730039  -1.211102   0.898294
C  -0.145731  -0.701121   0.045511
H  -1.430154   0.858984   0.836073
H  -1.367383   0.838788  -0.880069
H  -0.031067  -1.362183   0.961213
H   0.747482  -0.126578  -0.108471
H  -0.170639  -1.293739  -0.770648
