14
butane_opt
C  -3.928096   0.253124   0.028487
C  -2.704285  -0.602073   0.023442
H  -4.863289  -0.363399   0.122529
H  -4.014565   0.920288  -0.904000
H  -3.927223   0.878561   0.858978
C  -1.413260   0.189475   0.008033
H  -2.712422  -1.331476  -0.854915
H  -2.693196  -1.130658   0.860272
C  -0.160586  -0.706193   0.043936
H  -1.424345   0.897563   0.855483
H  -1.391003   0.820193  -0.876574
H  -0.167108  -1.369150   0.963744
H   0.789424  -0.098694  -0.049627
H  -0.134054  -1.310995  -0.786577
