14
butane_opt
C  -3.954924   0.247809   0.019531
C  -2.702012  -0.598796   0.042788
H  -4.869165  -0.370100  -0.042059
H  -3.928409   0.791260  -0.838266
H  -3.977642   0.982390   0.943282
C  -1.410373   0.200152  -0.000172
H  -2.741473  -1.258925  -0.812447
H  -2.674001  -1.187845   0.912939
C  -0.149089  -0.703994   0.042901
H  -1.395603   0.822871   0.825101
H  -1.361986   0.870189  -0.911797
H  -0.047154  -1.350693   0.942782
H   0.742596  -0.146908   0.011216
H  -0.164986  -1.376132  -0.842752
