14
butane_opt
C  -3.945886   0.257833  -0.007714
C  -2.707397  -0.607848   0.050927
H  -4.851255  -0.315044   0.062063
H  -3.966068   0.913029  -0.943715
H  -3.951207   0.839410   0.815182
C  -1.403476   0.194419   0.058337
H  -2.696688  -1.278470  -0.813779
H  -2.783408  -1.264392   0.957583
C  -0.152560  -0.698638   0.005311
H  -1.374925   0.909142   0.921439
H  -1.458526   0.826599  -0.826464
H  -0.008036  -1.379271   0.911190
H   0.762432  -0.120873  -0.074290
H  -0.189757  -1.345084  -0.844174
