14
butane_opt
C  -3.934595   0.257988   0.040979
C  -2.691928  -0.608070   0.014415
H  -4.846143  -0.335579   0.059188
H  -3.962531   0.834325  -0.803702
H  -3.922389   0.928936   0.911178
C  -1.413319   0.195311  -0.017244
H  -2.743333  -1.284689  -0.850383
H  -2.714323  -1.257928   0.940894
C  -0.160097  -0.699521   0.055178
H  -1.478322   0.842955   0.805116
H  -1.354714   0.866904  -0.950333
H  -0.224711  -1.279900   0.932405
H   0.744465  -0.125682   0.092916
H  -0.116712  -1.415312  -0.825267
