butane_opt
 OpenBabel08242015413D

 14 13  0  0  0  0  0  0  0  0999 V2000
   -3.9354    0.2569   -0.0021 C   0  0  0  0  0  0  0  0  0  0  0  0
   -2.7032   -0.6062    0.0634 C   0  0  0  0  0  0  0  0  0  0  0  0
   -4.8771   -0.3448    0.1151 H   0  0  0  0  0  0  0  0  0  0  0  0
   -3.9492    1.0237   -1.0002 H   0  0  0  0  0  0  0  0  0  0  0  0
   -3.9002    0.7616    0.7663 H   0  0  0  0  0  0  0  0  0  0  0  0
   -1.4079    0.2020    0.0376 C   0  0  0  0  0  0  0  0  0  0  0  0
   -2.7385   -1.3220   -0.8114 H   0  0  0  0  0  0  0  0  0  0  0  0
   -2.7325   -1.2030    0.9609 H   0  0  0  0  0  0  0  0  0  0  0  0
   -0.1656   -0.7027    0.0079 C   0  0  0  0  0  0  0  0  0  0  0  0
   -1.3814    0.8897    0.9049 H   0  0  0  0  0  0  0  0  0  0  0  0
   -1.3938    0.7810   -0.8139 H   0  0  0  0  0  0  0  0  0  0  0  0
   -0.1087   -1.2615    0.8599 H   0  0  0  0  0  0  0  0  0  0  0  0
    0.7198   -0.1352    0.0579 H   0  0  0  0  0  0  0  0  0  0  0  0
   -0.1151   -1.4632   -0.9096 H   0  0  0  0  0  0  0  0  0  0  0  0
  1  2  1  0  0  0  0
  1  3  1  0  0  0  0
  1  5  1  0  0  0  0
  2  8  1  0  0  0  0
  4  1  1  0  0  0  0
  6  2  1  0  0  0  0
  6 10  1  0  0  0  0
  7  2  1  0  0  0  0
  9  6  1  0  0  0  0
  9 13  1  0  0  0  0
  9 12  1  0  0  0  0
 11  6  1  0  0  0  0
 14  9  1  0  0  0  0
M  END
$$$$
