butane_opt
 OpenBabel08242015413D

 14 13  0  0  0  0  0  0  0  0999 V2000
   -3.9513    0.2784    0.0422 C   0  0  0  0  0  0  0  0  0  0  0  0
   -2.6835   -0.6306   -0.0012 C   0  0  0  0  0  0  0  0  0  0  0  0
   -4.8140   -0.2983    0.1619 H   0  0  0  0  0  0  0  0  0  0  0  0
   -4.0725    0.9251   -0.8527 H   0  0  0  0  0  0  0  0  0  0  0  0
   -3.8341    0.8830    0.8805 H   0  0  0  0  0  0  0  0  0  0  0  0
   -1.4039    0.1698   -0.0105 C   0  0  0  0  0  0  0  0  0  0  0  0
   -2.6800   -1.3164   -0.8702 H   0  0  0  0  0  0  0  0  0  0  0  0
   -2.7236   -1.2374    0.8508 H   0  0  0  0  0  0  0  0  0  0  0  0
   -0.1769   -0.6764    0.0633 C   0  0  0  0  0  0  0  0  0  0  0  0
   -1.3980    0.8487    0.8377 H   0  0  0  0  0  0  0  0  0  0  0  0
   -1.3570    0.7732   -0.8902 H   0  0  0  0  0  0  0  0  0  0  0  0
   -0.1637   -1.3353    0.9818 H   0  0  0  0  0  0  0  0  0  0  0  0
    0.7319   -0.0859    0.0090 H   0  0  0  0  0  0  0  0  0  0  0  0
   -0.1400   -1.3111   -0.7953 H   0  0  0  0  0  0  0  0  0  0  0  0
  1  3  1  0  0  0  0
  1  5  1  0  0  0  0
  2  1  1  0  0  0  0
  2  8  1  0  0  0  0
  4  1  1  0  0  0  0
  6  2  1  0  0  0  0
  6  9  1  0  0  0  0
  6 10  1  0  0  0  0
  7  2  1  0  0  0  0
  9 12  1  0  0  0  0
 11  6  1  0  0  0  0
 13  9  1  0  0  0  0
 14  9  1  0  0  0  0
M  END
$$$$
