butane_opt
 OpenBabel08242015413D

 14 13  0  0  0  0  0  0  0  0999 V2000
   -3.9240    0.2629    0.0434 C   0  0  0  0  0  0  0  0  0  0  0  0
   -2.7019   -0.6049    0.0036 C   0  0  0  0  0  0  0  0  0  0  0  0
   -4.8476   -0.3453    0.0209 H   0  0  0  0  0  0  0  0  0  0  0  0
   -3.9351    0.7842   -0.7945 H   0  0  0  0  0  0  0  0  0  0  0  0
   -3.9735    0.9718    0.9201 H   0  0  0  0  0  0  0  0  0  0  0  0
   -1.4140    0.1891   -0.0015 C   0  0  0  0  0  0  0  0  0  0  0  0
   -2.7701   -1.3400   -0.8836 H   0  0  0  0  0  0  0  0  0  0  0  0
   -2.6603   -1.1801    0.8479 H   0  0  0  0  0  0  0  0  0  0  0  0
   -0.1705   -0.6953    0.0577 C   0  0  0  0  0  0  0  0  0  0  0  0
   -1.3847    0.8163    0.8108 H   0  0  0  0  0  0  0  0  0  0  0  0
   -1.3586    0.8360   -0.9029 H   0  0  0  0  0  0  0  0  0  0  0  0
   -0.0971   -1.4725    1.0220 H   0  0  0  0  0  0  0  0  0  0  0  0
    0.7219   -0.1349   -0.1071 H   0  0  0  0  0  0  0  0  0  0  0  0
   -0.1886   -1.2287   -0.7084 H   0  0  0  0  0  0  0  0  0  0  0  0
  1  5  1  0  0  0  0
  2  1  1  0  0  0  0
  2  8  1  0  0  0  0
  3  1  1  0  0  0  0
  4  1  1  0  0  0  0
  6  2  1  0  0  0  0
  6  9  1  0  0  0  0
  6 10  1  0  0  0  0
  7  2  1  0  0  0  0
  9 12  1  0  0  0  0
 11  6  1  0  0  0  0
 13  9  1  0  0  0  0
 14  9  1  0  0  0  0
M  END
$$$$
