butane_opt
 OpenBabel08242015413D

 14 13  0  0  0  0  0  0  0  0999 V2000
   -3.9584    0.2786   -0.0038 C   0  0  0  0  0  0  0  0  0  0  0  0
   -2.7019   -0.6290    0.0502 C   0  0  0  0  0  0  0  0  0  0  0  0
   -4.8706   -0.3093    0.0907 H   0  0  0  0  0  0  0  0  0  0  0  0
   -4.0073    0.9215   -0.9342 H   0  0  0  0  0  0  0  0  0  0  0  0
   -3.9784    0.9199    0.8375 H   0  0  0  0  0  0  0  0  0  0  0  0
   -1.3881    0.1716    0.0395 C   0  0  0  0  0  0  0  0  0  0  0  0
   -2.6327   -1.3164   -0.7871 H   0  0  0  0  0  0  0  0  0  0  0  0
   -2.7474   -1.2581    0.9241 H   0  0  0  0  0  0  0  0  0  0  0  0
   -0.1604   -0.6900    0.0151 C   0  0  0  0  0  0  0  0  0  0  0  0
   -1.3495    0.9081    0.9165 H   0  0  0  0  0  0  0  0  0  0  0  0
   -1.4050    0.7505   -0.8333 H   0  0  0  0  0  0  0  0  0  0  0  0
   -0.0928   -1.3120    0.9224 H   0  0  0  0  0  0  0  0  0  0  0  0
    0.7645   -0.0569   -0.0898 H   0  0  0  0  0  0  0  0  0  0  0  0
   -0.2027   -1.2851   -0.8098 H   0  0  0  0  0  0  0  0  0  0  0  0
  1  2  1  0  0  0  0
  1  3  1  0  0  0  0
  1  5  1  0  0  0  0
  2  8  1  0  0  0  0
  4  1  1  0  0  0  0
  6  2  1  0  0  0  0
  6 10  1  0  0  0  0
  7  2  1  0  0  0  0
  9  6  1  0  0  0  0
  9 12  1  0  0  0  0
 11  6  1  0  0  0  0
 13  9  1  0  0  0  0
 14  9  1  0  0  0  0
M  END
$$$$
