14
butane_opt
C  -3.955660   0.275756   0.044411
C  -2.693405  -0.635828   0.016509
H  -4.863046  -0.320363   0.058190
H  -4.011609   0.907892  -0.855327
H  -3.933661   0.930024   0.879866
C  -1.401998   0.182727  -0.020527
H  -2.724497  -1.268868  -0.811194
H  -2.701117  -1.295784   0.899263
C  -0.154783  -0.682371   0.054784
H  -1.404366   0.865969   0.832420
H  -1.347365   0.795195  -0.906756
H  -0.201538  -1.240534   0.914474
H   0.725598  -0.141351   0.105281
H  -0.092939  -1.389128  -0.829217
