14
butane_opt
C  -3.947264   0.280529   0.035481
C  -2.695444  -0.621467   0.000394
H  -4.855293  -0.325191   0.012476
H  -4.019012   0.829638  -0.812629
H  -3.918410   0.988254   0.928189
C  -1.394490   0.159801   0.009723
H  -2.708248  -1.331720  -0.883618
H  -2.661739  -1.248618   0.902740
C  -0.165403  -0.678208   0.048573
H  -1.399107   0.823856   0.859937
H  -1.385041   0.820971  -0.889575
H  -0.134733  -1.432928   1.046801
H   0.727650  -0.071186  -0.137255
H  -0.239205  -1.208848  -0.704258
