14
butane_opt
C  -3.944749   0.262959   0.034709
C  -2.708560  -0.615541   0.006834
H  -4.875027  -0.324859   0.120313
H  -4.055867   0.917357  -0.858894
H  -3.871841   0.910159   0.913147
C  -1.404657   0.182106  -0.007866
H  -2.785877  -1.285271  -0.857338
H  -2.731995  -1.184548   0.868668
C  -0.149716  -0.698131   0.052640
H  -1.389607   0.901339   0.867958
H  -1.389625   0.792356  -0.898933
H  -0.120331  -1.380106   1.003036
H   0.782759  -0.086425   0.004077
H  -0.100260  -1.307413  -0.758083
