butane_opt
 OpenBabel08242015413D

 14 13  0  0  0  0  0  0  0  0999 V2000
   -3.9316    0.2539    0.0309 C   0  0  0  0  0  0  0  0  0  0  0  0
   -2.7046   -0.5955    0.0092 C   0  0  0  0  0  0  0  0  0  0  0  0
   -4.8136   -0.3259    0.1963 H   0  0  0  0  0  0  0  0  0  0  0  0
   -4.0235    0.9079   -0.8902 H   0  0  0  0  0  0  0  0  0  0  0  0
   -3.8429    0.8366    0.8567 H   0  0  0  0  0  0  0  0  0  0  0  0
   -1.4156    0.1926    0.0030 C   0  0  0  0  0  0  0  0  0  0  0  0
   -2.7606   -1.3136   -0.8766 H   0  0  0  0  0  0  0  0  0  0  0  0
   -2.6890   -1.1854    0.8706 H   0  0  0  0  0  0  0  0  0  0  0  0
   -0.1623   -0.7075    0.0530 C   0  0  0  0  0  0  0  0  0  0  0  0
   -1.4193    0.8208    0.8365 H   0  0  0  0  0  0  0  0  0  0  0  0
   -1.3711    0.8438   -0.8993 H   0  0  0  0  0  0  0  0  0  0  0  0
   -0.1476   -1.2960    0.9563 H   0  0  0  0  0  0  0  0  0  0  0  0
    0.7641   -0.1028    0.0398 H   0  0  0  0  0  0  0  0  0  0  0  0
   -0.1503   -1.3722   -0.8146 H   0  0  0  0  0  0  0  0  0  0  0  0
  1  3  1  0  0  0  0
  1  5  1  0  0  0  0
  2  1  1  0  0  0  0
  2  8  1  0  0  0  0
  4  1  1  0  0  0  0
  6  2  1  0  0  0  0
  6  9  1  0  0  0  0
  6 10  1  0  0  0  0
  7  2  1  0  0  0  0
  9 12  1  0  0  0  0
 11  6  1  0  0  0  0
 13  9  1  0  0  0  0
 14  9  1  0  0  0  0
M  END
$$$$
