butane_opt
 OpenBabel08242015413D

 14 13  0  0  0  0  0  0  0  0999 V2000
   -3.9427    0.2720    0.0005 C   0  0  0  0  0  0  0  0  0  0  0  0
   -2.6969   -0.6187    0.0795 C   0  0  0  0  0  0  0  0  0  0  0  0
   -4.8492   -0.3218   -0.1607 H   0  0  0  0  0  0  0  0  0  0  0  0
   -3.8942    0.8272   -0.8586 H   0  0  0  0  0  0  0  0  0  0  0  0
   -4.0214    1.0263    0.9069 H   0  0  0  0  0  0  0  0  0  0  0  0
   -1.3970    0.1720    0.0277 C   0  0  0  0  0  0  0  0  0  0  0  0
   -2.6879   -1.2971   -0.7806 H   0  0  0  0  0  0  0  0  0  0  0  0
   -2.6874   -1.2615    0.9435 H   0  0  0  0  0  0  0  0  0  0  0  0
   -0.1734   -0.6969    0.0071 C   0  0  0  0  0  0  0  0  0  0  0  0
   -1.3554    0.8206    0.8607 H   0  0  0  0  0  0  0  0  0  0  0  0
   -1.4169    0.8339   -0.8919 H   0  0  0  0  0  0  0  0  0  0  0  0
   -0.1848   -1.2943    0.8847 H   0  0  0  0  0  0  0  0  0  0  0  0
    0.7770   -0.0347   -0.0056 H   0  0  0  0  0  0  0  0  0  0  0  0
   -0.1823   -1.3077   -0.8276 H   0  0  0  0  0  0  0  0  0  0  0  0
  1  2  1  0  0  0  0
  1  5  1  0  0  0  0
  2  8  1  0  0  0  0
  3  1  1  0  0  0  0
  4  1  1  0  0  0  0
  6  2  1  0  0  0  0
  6 10  1  0  0  0  0
  7  2  1  0  0  0  0
  9  6  1  0  0  0  0
  9 12  1  0  0  0  0
 11  6  1  0  0  0  0
 13  9  1  0  0  0  0
 14  9  1  0  0  0  0
M  END
$$$$
