butane_opt
 OpenBabel08242015413D

 14 13  0  0  0  0  0  0  0  0999 V2000
   -3.9373    0.2696   -0.0128 C   0  0  0  0  0  0  0  0  0  0  0  0
   -2.6972   -0.6174    0.0676 C   0  0  0  0  0  0  0  0  0  0  0  0
   -4.8275   -0.3155    0.0905 H   0  0  0  0  0  0  0  0  0  0  0  0
   -3.9676    0.9797   -0.9575 H   0  0  0  0  0  0  0  0  0  0  0  0
   -3.9994    0.8786    0.8031 H   0  0  0  0  0  0  0  0  0  0  0  0
   -1.4104    0.1648    0.0419 C   0  0  0  0  0  0  0  0  0  0  0  0
   -2.6904   -1.3103   -0.7907 H   0  0  0  0  0  0  0  0  0  0  0  0
   -2.6780   -1.2613    0.9994 H   0  0  0  0  0  0  0  0  0  0  0  0
   -0.1697   -0.6839    0.0011 C   0  0  0  0  0  0  0  0  0  0  0  0
   -1.3566    0.8669    0.9095 H   0  0  0  0  0  0  0  0  0  0  0  0
   -1.4387    0.7771   -0.8251 H   0  0  0  0  0  0  0  0  0  0  0  0
   -0.1504   -1.2369    0.8564 H   0  0  0  0  0  0  0  0  0  0  0  0
    0.8049   -0.0407    0.0594 H   0  0  0  0  0  0  0  0  0  0  0  0
   -0.1512   -1.3979   -0.8899 H   0  0  0  0  0  0  0  0  0  0  0  0
  1  2  1  0  0  0  0
  1  3  1  0  0  0  0
  1  5  1  0  0  0  0
  2  8  1  0  0  0  0
  4  1  1  0  0  0  0
  6  2  1  0  0  0  0
  6 10  1  0  0  0  0
  7  2  1  0  0  0  0
  9  6  1  0  0  0  0
  9 13  1  0  0  0  0
  9 12  1  0  0  0  0
 11  6  1  0  0  0  0
 14  9  1  0  0  0  0
M  END
$$$$
