butane_opt
 OpenBabel08242015413D

 14 13  0  0  0  0  0  0  0  0999 V2000
   -3.9561    0.2589    0.0368 C   0  0  0  0  0  0  0  0  0  0  0  0
   -2.7044   -0.6124    0.0022 C   0  0  0  0  0  0  0  0  0  0  0  0
   -4.8543   -0.3387    0.0825 H   0  0  0  0  0  0  0  0  0  0  0  0
   -3.9652    0.8720   -0.8500 H   0  0  0  0  0  0  0  0  0  0  0  0
   -3.9518    0.9318    0.9206 H   0  0  0  0  0  0  0  0  0  0  0  0
   -1.3982    0.1966    0.0019 C   0  0  0  0  0  0  0  0  0  0  0  0
   -2.7860   -1.2725   -0.8453 H   0  0  0  0  0  0  0  0  0  0  0  0
   -2.7201   -1.1979    0.8595 H   0  0  0  0  0  0  0  0  0  0  0  0
   -0.1488   -0.7068    0.0502 C   0  0  0  0  0  0  0  0  0  0  0  0
   -1.4147    0.8831    0.8742 H   0  0  0  0  0  0  0  0  0  0  0  0
   -1.3787    0.8113   -0.8756 H   0  0  0  0  0  0  0  0  0  0  0  0
   -0.1057   -1.4299    1.0209 H   0  0  0  0  0  0  0  0  0  0  0  0
    0.7871   -0.0986   -0.0856 H   0  0  0  0  0  0  0  0  0  0  0  0
   -0.1473   -1.2622   -0.7454 H   0  0  0  0  0  0  0  0  0  0  0  0
  1  3  1  0  0  0  0
  1  5  1  0  0  0  0
  2  1  1  0  0  0  0
  2  8  1  0  0  0  0
  4  1  1  0  0  0  0
  6  2  1  0  0  0  0
  6  9  1  0  0  0  0
  6 10  1  0  0  0  0
  7  2  1  0  0  0  0
  9 12  1  0  0  0  0
 11  6  1  0  0  0  0
 13  9  1  0  0  0  0
 14  9  1  0  0  0  0
M  END
$$$$
