butane_opt
 OpenBabel08242015413D

 14 13  0  0  0  0  0  0  0  0999 V2000
   -3.9596    0.2698    0.0450 C   0  0  0  0  0  0  0  0  0  0  0  0
   -2.6992   -0.6267    0.0190 C   0  0  0  0  0  0  0  0  0  0  0  0
   -4.8445   -0.2881    0.0787 H   0  0  0  0  0  0  0  0  0  0  0  0
   -4.0353    0.8840   -0.8428 H   0  0  0  0  0  0  0  0  0  0  0  0
   -3.9484    1.0075    0.9406 H   0  0  0  0  0  0  0  0  0  0  0  0
   -1.3980    0.1745   -0.0396 C   0  0  0  0  0  0  0  0  0  0  0  0
   -2.7419   -1.3503   -0.8493 H   0  0  0  0  0  0  0  0  0  0  0  0
   -2.6372   -1.2679    0.9238 H   0  0  0  0  0  0  0  0  0  0  0  0
   -0.1563   -0.6760    0.0591 C   0  0  0  0  0  0  0  0  0  0  0  0
   -1.3776    0.8343    0.8170 H   0  0  0  0  0  0  0  0  0  0  0  0
   -1.3637    0.7897   -0.9486 H   0  0  0  0  0  0  0  0  0  0  0  0
   -0.2302   -1.2954    0.9440 H   0  0  0  0  0  0  0  0  0  0  0  0
    0.7590   -0.0821    0.1975 H   0  0  0  0  0  0  0  0  0  0  0  0
   -0.0532   -1.3947   -0.8226 H   0  0  0  0  0  0  0  0  0  0  0  0
  1  3  1  0  0  0  0
  1  5  1  0  0  0  0
  2  1  1  0  0  0  0
  2  8  1  0  0  0  0
  4  1  1  0  0  0  0
  6  2  1  0  0  0  0
  6  9  1  0  0  0  0
  6 10  1  0  0  0  0
  7  2  1  0  0  0  0
  9 13  1  0  0  0  0
  9 12  1  0  0  0  0
 11  6  1  0  0  0  0
 14  9  1  0  0  0  0
M  END
$$$$
