butane_opt
 OpenBabel08242015413D

 14 13  0  0  0  0  0  0  0  0999 V2000
   -3.9425    0.2533   -0.0164 C   0  0  0  0  0  0  0  0  0  0  0  0
   -2.7033   -0.6114    0.0800 C   0  0  0  0  0  0  0  0  0  0  0  0
   -4.8450   -0.3450   -0.0366 H   0  0  0  0  0  0  0  0  0  0  0  0
   -3.9226    0.8816   -0.9660 H   0  0  0  0  0  0  0  0  0  0  0  0
   -4.0458    0.8973    0.8210 H   0  0  0  0  0  0  0  0  0  0  0  0
   -1.4096    0.2123    0.0551 C   0  0  0  0  0  0  0  0  0  0  0  0
   -2.7222   -1.2991   -0.7978 H   0  0  0  0  0  0  0  0  0  0  0  0
   -2.7841   -1.2345    0.9810 H   0  0  0  0  0  0  0  0  0  0  0  0
   -0.1418   -0.7049   -0.0005 C   0  0  0  0  0  0  0  0  0  0  0  0
   -1.3774    0.9239    0.9287 H   0  0  0  0  0  0  0  0  0  0  0  0
   -1.4492    0.7720   -0.7927 H   0  0  0  0  0  0  0  0  0  0  0  0
   -0.0506   -1.3581    0.9112 H   0  0  0  0  0  0  0  0  0  0  0  0
    0.7392   -0.1454   -0.1702 H   0  0  0  0  0  0  0  0  0  0  0  0
   -0.1892   -1.3558   -0.8563 H   0  0  0  0  0  0  0  0  0  0  0  0
  1  2  1  0  0  0  0
  1  5  1  0  0  0  0
  2  8  1  0  0  0  0
  3  1  1  0  0  0  0
  4  1  1  0  0  0  0
  6  2  1  0  0  0  0
  6 10  1  0  0  0  0
  7  2  1  0  0  0  0
  9  6  1  0  0  0  0
  9 12  1  0  0  0  0
 11  6  1  0  0  0  0
 13  9  1  0  0  0  0
 14  9  1  0  0  0  0
M  END
$$$$
