14
butane_opt
C  -3.929495   0.253580  -0.009930
C  -2.710926  -0.603486   0.059190
H  -4.815887  -0.338445   0.027777
H  -3.897778   0.899471  -0.933090
H  -3.948976   0.851362   0.815437
C  -1.412612   0.206492   0.056797
H  -2.678313  -1.263665  -0.788327
H  -2.742399  -1.248986   0.967482
C  -0.160357  -0.709727   0.003566
H  -1.431174   0.883966   0.917793
H  -1.400782   0.811594  -0.823899
H  -0.076802  -1.336567   0.890476
H   0.745459  -0.105331  -0.112319
H  -0.215148  -1.382116  -0.844923
