butane_opt
 OpenBabel08242015413D

 14 13  0  0  0  0  0  0  0  0999 V2000
   -3.9601    0.2770    0.0332 C   0  0  0  0  0  0  0  0  0  0  0  0
   -2.7040   -0.6254    0.0208 C   0  0  0  0  0  0  0  0  0  0  0  0
   -4.8889   -0.3264   -0.0109 H   0  0  0  0  0  0  0  0  0  0  0  0
   -3.9703    0.8384   -0.7957 H   0  0  0  0  0  0  0  0  0  0  0  0
   -4.0494    0.9867    0.9109 H   0  0  0  0  0  0  0  0  0  0  0  0
   -1.3833    0.1736    0.0046 C   0  0  0  0  0  0  0  0  0  0  0  0
   -2.7266   -1.3041   -0.8636 H   0  0  0  0  0  0  0  0  0  0  0  0
   -2.6924   -1.2083    0.8832 H   0  0  0  0  0  0  0  0  0  0  0  0
   -0.1578   -0.6831    0.0419 C   0  0  0  0  0  0  0  0  0  0  0  0
   -1.4128    0.8255    0.8358 H   0  0  0  0  0  0  0  0  0  0  0  0
   -1.3243    0.7970   -0.8888 H   0  0  0  0  0  0  0  0  0  0  0  0
   -0.0934   -1.4366    1.0304 H   0  0  0  0  0  0  0  0  0  0  0  0
    0.7674   -0.0812   -0.0842 H   0  0  0  0  0  0  0  0  0  0  0  0
   -0.1725   -1.2707   -0.7673 H   0  0  0  0  0  0  0  0  0  0  0  0
  1  5  1  0  0  0  0
  2  1  1  0  0  0  0
  2  8  1  0  0  0  0
  3  1  1  0  0  0  0
  4  1  1  0  0  0  0
  6  2  1  0  0  0  0
  6  9  1  0  0  0  0
  6 10  1  0  0  0  0
  7  2  1  0  0  0  0
  9 12  1  0  0  0  0
 11  6  1  0  0  0  0
 13  9  1  0  0  0  0
 14  9  1  0  0  0  0
M  END
$$$$
