butane_opt
 OpenBabel08242015413D

 14 13  0  0  0  0  0  0  0  0999 V2000
   -3.9418    0.2572    0.0499 C   0  0  0  0  0  0  0  0  0  0  0  0
   -2.7113   -0.6104   -0.0036 C   0  0  0  0  0  0  0  0  0  0  0  0
   -4.8154   -0.3409    0.1491 H   0  0  0  0  0  0  0  0  0  0  0  0
   -4.0448    0.8955   -0.8513 H   0  0  0  0  0  0  0  0  0  0  0  0
   -3.8475    0.9088    0.8983 H   0  0  0  0  0  0  0  0  0  0  0  0
   -1.4092    0.1947   -0.0193 C   0  0  0  0  0  0  0  0  0  0  0  0
   -2.8083   -1.3093   -0.8845 H   0  0  0  0  0  0  0  0  0  0  0  0
   -2.6998   -1.2178    0.8377 H   0  0  0  0  0  0  0  0  0  0  0  0
   -0.1463   -0.7022    0.0723 C   0  0  0  0  0  0  0  0  0  0  0  0
   -1.4594    0.8743    0.8202 H   0  0  0  0  0  0  0  0  0  0  0  0
   -1.3444    0.8716   -0.9477 H   0  0  0  0  0  0  0  0  0  0  0  0
   -0.1372   -1.3205    0.9692 H   0  0  0  0  0  0  0  0  0  0  0  0
    0.7382   -0.1410    0.0339 H   0  0  0  0  0  0  0  0  0  0  0  0
   -0.1036   -1.3616   -0.7858 H   0  0  0  0  0  0  0  0  0  0  0  0
  1  3  1  0  0  0  0
  1  5  1  0  0  0  0
  2  1  1  0  0  0  0
  2  8  1  0  0  0  0
  4  1  1  0  0  0  0
  6  2  1  0  0  0  0
  6  9  1  0  0  0  0
  6 10  1  0  0  0  0
  7  2  1  0  0  0  0
  9 12  1  0  0  0  0
 11  6  1  0  0  0  0
 13  9  1  0  0  0  0
 14  9  1  0  0  0  0
M  END
$$$$
