butane_opt
 OpenBabel08242015413D

 14 13  0  0  0  0  0  0  0  0999 V2000
   -3.9573    0.2791    0.0510 C   0  0  0  0  0  0  0  0  0  0  0  0
   -2.6963   -0.6430   -0.0060 C   0  0  0  0  0  0  0  0  0  0  0  0
   -4.8315   -0.2794    0.1468 H   0  0  0  0  0  0  0  0  0  0  0  0
   -4.1064    0.9340   -0.8486 H   0  0  0  0  0  0  0  0  0  0  0  0
   -3.8980    0.9130    0.8976 H   0  0  0  0  0  0  0  0  0  0  0  0
   -1.4000    0.1804   -0.0082 C   0  0  0  0  0  0  0  0  0  0  0  0
   -2.7680   -1.3568   -0.9020 H   0  0  0  0  0  0  0  0  0  0  0  0
   -2.6891   -1.2186    0.8283 H   0  0  0  0  0  0  0  0  0  0  0  0
   -0.1555   -0.6778    0.0651 C   0  0  0  0  0  0  0  0  0  0  0  0
   -1.4220    0.7784    0.7850 H   0  0  0  0  0  0  0  0  0  0  0  0
   -1.3725    0.8546   -0.9554 H   0  0  0  0  0  0  0  0  0  0  0  0
   -0.1566   -1.3393    0.9720 H   0  0  0  0  0  0  0  0  0  0  0  0
    0.7941   -0.0545    0.0644 H   0  0  0  0  0  0  0  0  0  0  0  0
   -0.0832   -1.3497   -0.7760 H   0  0  0  0  0  0  0  0  0  0  0  0
  1  3  1  0  0  0  0
  1  5  1  0  0  0  0
  2  1  1  0  0  0  0
  2  8  1  0  0  0  0
  4  1  1  0  0  0  0
  6  2  1  0  0  0  0
  6  9  1  0  0  0  0
  6 10  1  0  0  0  0
  7  2  1  0  0  0  0
  9 12  1  0  0  0  0
 11  6  1  0  0  0  0
 13  9  1  0  0  0  0
 14  9  1  0  0  0  0
M  END
$$$$
