butane_opt
 OpenBabel08242015413D

 14 13  0  0  0  0  0  0  0  0999 V2000
   -3.9570    0.2612    0.0397 C   0  0  0  0  0  0  0  0  0  0  0  0
   -2.7084   -0.6135    0.0231 C   0  0  0  0  0  0  0  0  0  0  0  0
   -4.8787   -0.3444   -0.0583 H   0  0  0  0  0  0  0  0  0  0  0  0
   -3.9063    0.7442   -0.7728 H   0  0  0  0  0  0  0  0  0  0  0  0
   -3.9947    1.0561    0.9852 H   0  0  0  0  0  0  0  0  0  0  0  0
   -1.3991    0.1995   -0.0172 C   0  0  0  0  0  0  0  0  0  0  0  0
   -2.7179   -1.3168   -0.8397 H   0  0  0  0  0  0  0  0  0  0  0  0
   -2.7240   -1.2008    0.8844 H   0  0  0  0  0  0  0  0  0  0  0  0
   -0.1489   -0.7045    0.0638 C   0  0  0  0  0  0  0  0  0  0  0  0
   -1.4032    0.8175    0.7862 H   0  0  0  0  0  0  0  0  0  0  0  0
   -1.3224    0.8658   -0.9752 H   0  0  0  0  0  0  0  0  0  0  0  0
   -0.0937   -1.3515    0.9716 H   0  0  0  0  0  0  0  0  0  0  0  0
    0.7477   -0.1617   -0.0624 H   0  0  0  0  0  0  0  0  0  0  0  0
   -0.1639   -1.2968   -0.7700 H   0  0  0  0  0  0  0  0  0  0  0  0
  1  5  1  0  0  0  0
  2  1  1  0  0  0  0
  2  8  1  0  0  0  0
  3  1  1  0  0  0  0
  4  1  1  0  0  0  0
  6  2  1  0  0  0  0
  6  9  1  0  0  0  0
  6 10  1  0  0  0  0
  7  2  1  0  0  0  0
  9 12  1  0  0  0  0
 11  6  1  0  0  0  0
 13  9  1  0  0  0  0
 14  9  1  0  0  0  0
M  END
$$$$
