butane_opt
 OpenBabel08242015413D

 14 13  0  0  0  0  0  0  0  0999 V2000
   -3.9449    0.2539    0.0352 C   0  0  0  0  0  0  0  0  0  0  0  0
   -2.7112   -0.6057    0.0331 C   0  0  0  0  0  0  0  0  0  0  0  0
   -4.8722   -0.3716    0.0410 H   0  0  0  0  0  0  0  0  0  0  0  0
   -3.9151    0.8731   -0.8498 H   0  0  0  0  0  0  0  0  0  0  0  0
   -4.0125    0.9043    0.8917 H   0  0  0  0  0  0  0  0  0  0  0  0
   -1.4134    0.2067   -0.0112 C   0  0  0  0  0  0  0  0  0  0  0  0
   -2.7366   -1.3163   -0.8493 H   0  0  0  0  0  0  0  0  0  0  0  0
   -2.6715   -1.2422    0.8993 H   0  0  0  0  0  0  0  0  0  0  0  0
   -0.1471   -0.7000    0.0461 C   0  0  0  0  0  0  0  0  0  0  0  0
   -1.3893    0.8554    0.8197 H   0  0  0  0  0  0  0  0  0  0  0  0
   -1.3769    0.8752   -0.9313 H   0  0  0  0  0  0  0  0  0  0  0  0
   -0.1211   -1.3157    0.9269 H   0  0  0  0  0  0  0  0  0  0  0  0
    0.7355   -0.1454    0.1068 H   0  0  0  0  0  0  0  0  0  0  0  0
   -0.0606   -1.4543   -0.8540 H   0  0  0  0  0  0  0  0  0  0  0  0
  1  3  1  0  0  0  0
  1  5  1  0  0  0  0
  2  1  1  0  0  0  0
  2  8  1  0  0  0  0
  4  1  1  0  0  0  0
  6  2  1  0  0  0  0
  6  9  1  0  0  0  0
  6 10  1  0  0  0  0
  7  2  1  0  0  0  0
  9 13  1  0  0  0  0
  9 12  1  0  0  0  0
 11  6  1  0  0  0  0
 14  9  1  0  0  0  0
M  END
$$$$
