butane_opt
 OpenBabel08242015413D

 14 13  0  0  0  0  0  0  0  0999 V2000
   -3.9456    0.2516    0.0457 C   0  0  0  0  0  0  0  0  0  0  0  0
   -2.7032   -0.6030   -0.0059 C   0  0  0  0  0  0  0  0  0  0  0  0
   -4.8843   -0.3404    0.1884 H   0  0  0  0  0  0  0  0  0  0  0  0
   -4.0087    0.9256   -0.8768 H   0  0  0  0  0  0  0  0  0  0  0  0
   -3.9017    0.8718    0.8800 H   0  0  0  0  0  0  0  0  0  0  0  0
   -1.4137    0.1983   -0.0101 C   0  0  0  0  0  0  0  0  0  0  0  0
   -2.7430   -1.3227   -0.8996 H   0  0  0  0  0  0  0  0  0  0  0  0
   -2.6786   -1.1918    0.8812 H   0  0  0  0  0  0  0  0  0  0  0  0
   -0.1479   -0.6997    0.0576 C   0  0  0  0  0  0  0  0  0  0  0  0
   -1.3591    0.8548    0.8366 H   0  0  0  0  0  0  0  0  0  0  0  0
   -1.3864    0.8003   -0.8853 H   0  0  0  0  0  0  0  0  0  0  0  0
   -0.1569   -1.3637    1.0032 H   0  0  0  0  0  0  0  0  0  0  0  0
    0.7218   -0.1558    0.0389 H   0  0  0  0  0  0  0  0  0  0  0  0
   -0.0906   -1.3220   -0.7702 H   0  0  0  0  0  0  0  0  0  0  0  0
  1  3  1  0  0  0  0
  1  5  1  0  0  0  0
  2  1  1  0  0  0  0
  2  8  1  0  0  0  0
  4  1  1  0  0  0  0
  6  2  1  0  0  0  0
  6  9  1  0  0  0  0
  6 10  1  0  0  0  0
  7  2  1  0  0  0  0
  9 12  1  0  0  0  0
 11  6  1  0  0  0  0
 13  9  1  0  0  0  0
 14  9  1  0  0  0  0
M  END
$$$$
