14
butane_opt
C  -3.943684   0.274231   0.047363
C  -2.698830  -0.633259  -0.006398
H  -4.801446  -0.286839   0.138194
H  -4.041218   0.935853  -0.853399
H  -3.905992   0.957911   0.912636
C  -1.404117   0.172594  -0.009583
H  -2.743388  -1.331106  -0.883385
H  -2.681336  -1.215902   0.849540
C  -0.168517  -0.682460   0.056536
H  -1.392990   0.841711   0.845698
H  -1.318356   0.760834  -0.903467
H  -0.205125  -1.350603   1.012109
H   0.755910  -0.097568  -0.033216
H  -0.114346  -1.243956  -0.700503
