butane_opt
 OpenBabel08242015413D

 14 13  0  0  0  0  0  0  0  0999 V2000
   -3.9515    0.2562   -0.0128 C   0  0  0  0  0  0  0  0  0  0  0  0
   -2.7065   -0.5948    0.0698 C   0  0  0  0  0  0  0  0  0  0  0  0
   -4.8725   -0.3553   -0.0745 H   0  0  0  0  0  0  0  0  0  0  0  0
   -3.8946    0.8202   -0.8792 H   0  0  0  0  0  0  0  0  0  0  0  0
   -4.0188    0.9305    0.8360 H   0  0  0  0  0  0  0  0  0  0  0  0
   -1.3976    0.1915    0.0452 C   0  0  0  0  0  0  0  0  0  0  0  0
   -2.7506   -1.2042   -0.7606 H   0  0  0  0  0  0  0  0  0  0  0  0
   -2.7512   -1.3063    1.0264 H   0  0  0  0  0  0  0  0  0  0  0  0
   -0.1459   -0.7015   -0.0028 C   0  0  0  0  0  0  0  0  0  0  0  0
   -1.3617    0.9085    0.9239 H   0  0  0  0  0  0  0  0  0  0  0  0
   -1.4076    0.7991   -0.8280 H   0  0  0  0  0  0  0  0  0  0  0  0
   -0.0637   -1.3487    0.9079 H   0  0  0  0  0  0  0  0  0  0  0  0
    0.7381   -0.1507   -0.0375 H   0  0  0  0  0  0  0  0  0  0  0  0
   -0.2133   -1.3900   -0.8630 H   0  0  0  0  0  0  0  0  0  0  0  0
  1  2  1  0  0  0  0
  1  5  1  0  0  0  0
  2  8  1  0  0  0  0
  3  1  1  0  0  0  0
  4  1  1  0  0  0  0
  6  2  1  0  0  0  0
  6 10  1  0  0  0  0
  7  2  1  0  0  0  0
  9  6  1  0  0  0  0
  9 12  1  0  0  0  0
 11  6  1  0  0  0  0
 13  9  1  0  0  0  0
 14  9  1  0  0  0  0
M  END
$$$$
