14
butane_opt
C  -3.955865   0.268200   0.031835
C  -2.701011  -0.624215   0.011900
H  -4.840405  -0.310164   0.171564
H  -4.027494   0.985676  -0.900040
H  -3.968571   0.864260   0.834718
C  -1.384146   0.188553   0.012329
H  -2.738720  -1.313993  -0.852641
H  -2.705215  -1.246208   0.867197
C  -0.169409  -0.690627   0.048607
H  -1.392165   0.822513   0.825459
H  -1.364899   0.815245  -0.883456
H  -0.094060  -1.296822   0.919840
H   0.750558  -0.099445   0.035387
H  -0.123095  -1.386132  -0.839817
