14
butane_opt
C  -3.955953   0.256796   0.001739
C  -2.706260  -0.610534   0.055008
H  -4.869703  -0.354801  -0.021687
H  -3.936503   0.821922  -0.843748
H  -3.934755   0.963536   0.879401
C  -1.407018   0.202817   0.017495
H  -2.675696  -1.229819  -0.736971
H  -2.751812  -1.267318   0.956762
C  -0.149901  -0.708995   0.022742
H  -1.326092   0.897952   0.864344
H  -1.397197   0.822950  -0.878411
H  -0.088861  -1.300371   0.895819
H   0.737971  -0.130247   0.029742
H  -0.147573  -1.386453  -0.859555
