butane_opt
 OpenBabel08242015413D

 14 13  0  0  0  0  0  0  0  0999 V2000
   -3.9376    0.2689    0.0456 C   0  0  0  0  0  0  0  0  0  0  0  0
   -2.6909   -0.6163   -0.0014 C   0  0  0  0  0  0  0  0  0  0  0  0
   -4.8741   -0.3416    0.1654 H   0  0  0  0  0  0  0  0  0  0  0  0
   -4.0954    0.9461   -0.8986 H   0  0  0  0  0  0  0  0  0  0  0  0
   -3.8767    0.8924    0.8746 H   0  0  0  0  0  0  0  0  0  0  0  0
   -1.4048    0.1801   -0.0081 C   0  0  0  0  0  0  0  0  0  0  0  0
   -2.7073   -1.3737   -0.9070 H   0  0  0  0  0  0  0  0  0  0  0  0
   -2.6637   -1.2196    0.8683 H   0  0  0  0  0  0  0  0  0  0  0  0
   -0.1698   -0.6934    0.0661 C   0  0  0  0  0  0  0  0  0  0  0  0
   -1.4027    0.8166    0.8069 H   0  0  0  0  0  0  0  0  0  0  0  0
   -1.3914    0.8472   -0.8964 H   0  0  0  0  0  0  0  0  0  0  0  0
   -0.1749   -1.3027    0.9789 H   0  0  0  0  0  0  0  0  0  0  0  0
    0.7829   -0.0536    0.0208 H   0  0  0  0  0  0  0  0  0  0  0  0
   -0.1768   -1.3509   -0.8062 H   0  0  0  0  0  0  0  0  0  0  0  0
  1  3  1  0  0  0  0
  1  5  1  0  0  0  0
  2  1  1  0  0  0  0
  2  8  1  0  0  0  0
  4  1  1  0  0  0  0
  6  2  1  0  0  0  0
  6  9  1  0  0  0  0
  6 10  1  0  0  0  0
  7  2  1  0  0  0  0
  9 12  1  0  0  0  0
 11  6  1  0  0  0  0
 13  9  1  0  0  0  0
 14  9  1  0  0  0  0
M  END
$$$$
