butane_opt
 OpenBabel08242015413D

 14 13  0  0  0  0  0  0  0  0999 V2000
   -3.9529    0.2755   -0.0103 C   0  0  0  0  0  0  0  0  0  0  0  0
   -2.6900   -0.6170    0.0567 C   0  0  0  0  0  0  0  0  0  0  0  0
   -4.8312   -0.2951    0.0041 H   0  0  0  0  0  0  0  0  0  0  0  0
   -3.9538    0.8766   -0.8923 H   0  0  0  0  0  0  0  0  0  0  0  0
   -3.9587    0.9237    0.8449 H   0  0  0  0  0  0  0  0  0  0  0  0
   -1.3983    0.1624    0.0423 C   0  0  0  0  0  0  0  0  0  0  0  0
   -2.7019   -1.2492   -0.7911 H   0  0  0  0  0  0  0  0  0  0  0  0
   -2.6825   -1.2920    0.9798 H   0  0  0  0  0  0  0  0  0  0  0  0
   -0.1764   -0.6819    0.0132 C   0  0  0  0  0  0  0  0  0  0  0  0
   -1.3300    0.8917    0.9403 H   0  0  0  0  0  0  0  0  0  0  0  0
   -1.3535    0.7433   -0.8253 H   0  0  0  0  0  0  0  0  0  0  0  0
   -0.1306   -1.3418    0.9125 H   0  0  0  0  0  0  0  0  0  0  0  0
    0.7519   -0.0674   -0.1207 H   0  0  0  0  0  0  0  0  0  0  0  0
   -0.2275   -1.3236   -0.8394 H   0  0  0  0  0  0  0  0  0  0  0  0
  1  3  1  0  0  0  0
  1  2  1  0  0  0  0
  1  5  1  0  0  0  0
  2  8  1  0  0  0  0
  4  1  1  0  0  0  0
  6  2  1  0  0  0  0
  6 10  1  0  0  0  0
  7  2  1  0  0  0  0
  9  6  1  0  0  0  0
  9 12  1  0  0  0  0
 11  6  1  0  0  0  0
 13  9  1  0  0  0  0
 14  9  1  0  0  0  0
M  END
$$$$
