butane_opt
 OpenBabel08242015413D

 14 13  0  0  0  0  0  0  0  0999 V2000
   -3.9532    0.2777    0.0339 C   0  0  0  0  0  0  0  0  0  0  0  0
   -2.7053   -0.6428    0.0163 C   0  0  0  0  0  0  0  0  0  0  0  0
   -4.8155   -0.2729    0.0954 H   0  0  0  0  0  0  0  0  0  0  0  0
   -4.0228    0.8425   -0.8206 H   0  0  0  0  0  0  0  0  0  0  0  0
   -3.9442    0.9908    0.9418 H   0  0  0  0  0  0  0  0  0  0  0  0
   -1.3938    0.1840   -0.0139 C   0  0  0  0  0  0  0  0  0  0  0  0
   -2.7429   -1.3247   -0.8572 H   0  0  0  0  0  0  0  0  0  0  0  0
   -2.7072   -1.2295    0.8808 H   0  0  0  0  0  0  0  0  0  0  0  0
   -0.1578   -0.6841    0.0586 C   0  0  0  0  0  0  0  0  0  0  0  0
   -1.4132    0.7958    0.7823 H   0  0  0  0  0  0  0  0  0  0  0  0
   -1.3809    0.8694   -0.9299 H   0  0  0  0  0  0  0  0  0  0  0  0
   -0.1580   -1.2979    0.9851 H   0  0  0  0  0  0  0  0  0  0  0  0
    0.7695   -0.0766    0.0515 H   0  0  0  0  0  0  0  0  0  0  0  0
   -0.1012   -1.3798   -0.8249 H   0  0  0  0  0  0  0  0  0  0  0  0
  1  3  1  0  0  0  0
  1  5  1  0  0  0  0
  2  1  1  0  0  0  0
  2  8  1  0  0  0  0
  4  1  1  0  0  0  0
  6  2  1  0  0  0  0
  6  9  1  0  0  0  0
  6 10  1  0  0  0  0
  7  2  1  0  0  0  0
  9 12  1  0  0  0  0
 11  6  1  0  0  0  0
 13  9  1  0  0  0  0
 14  9  1  0  0  0  0
M  END
$$$$
