butane_opt
 OpenBabel08242015413D

 14 13  0  0  0  0  0  0  0  0999 V2000
   -3.9340    0.2660    0.0497 C   0  0  0  0  0  0  0  0  0  0  0  0
   -2.6882   -0.6151   -0.0058 C   0  0  0  0  0  0  0  0  0  0  0  0
   -4.8650   -0.3367    0.1472 H   0  0  0  0  0  0  0  0  0  0  0  0
   -4.0432    0.9274   -0.8947 H   0  0  0  0  0  0  0  0  0  0  0  0
   -3.9291    0.8716    0.8581 H   0  0  0  0  0  0  0  0  0  0  0  0
   -1.4165    0.1820   -0.0098 C   0  0  0  0  0  0  0  0  0  0  0  0
   -2.7395   -1.3038   -0.8555 H   0  0  0  0  0  0  0  0  0  0  0  0
   -2.6448   -1.2183    0.8694 H   0  0  0  0  0  0  0  0  0  0  0  0
   -0.1664   -0.6944    0.0624 C   0  0  0  0  0  0  0  0  0  0  0  0
   -1.3866    0.8614    0.8282 H   0  0  0  0  0  0  0  0  0  0  0  0
   -1.3815    0.7861   -0.8713 H   0  0  0  0  0  0  0  0  0  0  0  0
   -0.2038   -1.3287    0.9859 H   0  0  0  0  0  0  0  0  0  0  0  0
    0.7781   -0.0487    0.0045 H   0  0  0  0  0  0  0  0  0  0  0  0
   -0.1406   -1.3438   -0.7979 H   0  0  0  0  0  0  0  0  0  0  0  0
  1  3  1  0  0  0  0
  1  5  1  0  0  0  0
  2  1  1  0  0  0  0
  2  8  1  0  0  0  0
  4  1  1  0  0  0  0
  6  2  1  0  0  0  0
  6  9  1  0  0  0  0
  6 10  1  0  0  0  0
  7  2  1  0  0  0  0
  9 12  1  0  0  0  0
 11  6  1  0  0  0  0
 13  9  1  0  0  0  0
 14  9  1  0  0  0  0
M  END
$$$$
