butane_opt
 OpenBabel08242015413D

 14 13  0  0  0  0  0  0  0  0999 V2000
   -3.9547    0.2589   -0.0229 C   0  0  0  0  0  0  0  0  0  0  0  0
   -2.7077   -0.6080    0.0791 C   0  0  0  0  0  0  0  0  0  0  0  0
   -4.8228   -0.3182   -0.0712 H   0  0  0  0  0  0  0  0  0  0  0  0
   -3.9127    0.7950   -0.8716 H   0  0  0  0  0  0  0  0  0  0  0  0
   -3.9989    0.9722    0.8774 H   0  0  0  0  0  0  0  0  0  0  0  0
   -1.4128    0.1923    0.0414 C   0  0  0  0  0  0  0  0  0  0  0  0
   -2.7133   -1.2148   -0.7117 H   0  0  0  0  0  0  0  0  0  0  0  0
   -2.7260   -1.3138    0.9974 H   0  0  0  0  0  0  0  0  0  0  0  0
   -0.1430   -0.7003    0.0053 C   0  0  0  0  0  0  0  0  0  0  0  0
   -1.3612    0.8859    0.8988 H   0  0  0  0  0  0  0  0  0  0  0  0
   -1.4164    0.7841   -0.8279 H   0  0  0  0  0  0  0  0  0  0  0  0
   -0.0733   -1.2910    0.8757 H   0  0  0  0  0  0  0  0  0  0  0  0
    0.7800   -0.1019   -0.0631 H   0  0  0  0  0  0  0  0  0  0  0  0
   -0.1672   -1.3786   -0.8976 H   0  0  0  0  0  0  0  0  0  0  0  0
  1  2  1  0  0  0  0
  1  5  1  0  0  0  0
  2  8  1  0  0  0  0
  3  1  1  0  0  0  0
  4  1  1  0  0  0  0
  6  2  1  0  0  0  0
  6 10  1  0  0  0  0
  7  2  1  0  0  0  0
  9  6  1  0  0  0  0
  9 12  1  0  0  0  0
 11  6  1  0  0  0  0
 13  9  1  0  0  0  0
 14  9  1  0  0  0  0
M  END
$$$$
