14
butane_opt
C  -3.931211   0.253152   0.041287
C  -2.696973  -0.602393   0.000240
H  -4.844075  -0.334368   0.049516
H  -4.030305   0.844168  -0.828674
H  -3.883358   0.939893   0.937148
C  -1.406905   0.195537  -0.002697
H  -2.724912  -1.287807  -0.870420
H  -2.782523  -1.238631   0.895424
C  -0.167971  -0.710181   0.053723
H  -1.414203   0.883943   0.840254
H  -1.389374   0.847857  -0.894027
H  -0.107992  -1.401932   0.989034
H   0.721787  -0.104597  -0.047756
H  -0.126273  -1.255156  -0.729290
