14
butane_opt
C  -3.958152   0.265326  -0.002898
C  -2.695098  -0.630055   0.071316
H  -4.840314  -0.308699   0.049964
H  -3.927518   0.935182  -0.930854
H  -4.011729   0.959716   0.861133
C  -1.405663   0.182489   0.025455
H  -2.676828  -1.323129  -0.777595
H  -2.718707  -1.232572   0.934061
C  -0.159069  -0.684693   0.012205
H  -1.341193   0.850249   0.855783
H  -1.382969   0.802014  -0.870423
H  -0.142635  -1.250696   0.873370
H   0.721726  -0.098061   0.064454
H  -0.091854  -1.401850  -0.892726
