butane_opt
 OpenBabel08242015413D

 14 13  0  0  0  0  0  0  0  0999 V2000
   -3.9487    0.2623   -0.0037 C   0  0  0  0  0  0  0  0  0  0  0  0
   -2.7045   -0.6140    0.0626 C   0  0  0  0  0  0  0  0  0  0  0  0
   -4.8878   -0.3677   -0.0162 H   0  0  0  0  0  0  0  0  0  0  0  0
   -3.9096    0.8775   -0.8990 H   0  0  0  0  0  0  0  0  0  0  0  0
   -3.9778    0.9306    0.8431 H   0  0  0  0  0  0  0  0  0  0  0  0
   -1.4051    0.1998    0.0313 C   0  0  0  0  0  0  0  0  0  0  0  0
   -2.7536   -1.2658   -0.7865 H   0  0  0  0  0  0  0  0  0  0  0  0
   -2.7486   -1.2750    0.9685 H   0  0  0  0  0  0  0  0  0  0  0  0
   -0.1533   -0.7058    0.0117 C   0  0  0  0  0  0  0  0  0  0  0  0
   -1.3871    0.9251    0.9435 H   0  0  0  0  0  0  0  0  0  0  0  0
   -1.3827    0.7852   -0.8360 H   0  0  0  0  0  0  0  0  0  0  0  0
   -0.0598   -1.3210    0.9108 H   0  0  0  0  0  0  0  0  0  0  0  0
    0.7250   -0.1137   -0.0923 H   0  0  0  0  0  0  0  0  0  0  0  0
   -0.1055   -1.3579   -0.8267 H   0  0  0  0  0  0  0  0  0  0  0  0
  1  2  1  0  0  0  0
  1  5  1  0  0  0  0
  2  8  1  0  0  0  0
  3  1  1  0  0  0  0
  4  1  1  0  0  0  0
  6  2  1  0  0  0  0
  6 10  1  0  0  0  0
  7  2  1  0  0  0  0
  9  6  1  0  0  0  0
  9 12  1  0  0  0  0
 11  6  1  0  0  0  0
 13  9  1  0  0  0  0
 14  9  1  0  0  0  0
M  END
$$$$
