butane_opt
 OpenBabel08242015413D

 14 13  0  0  0  0  0  0  0  0999 V2000
   -3.9310    0.2457   -0.0001 C   0  0  0  0  0  0  0  0  0  0  0  0
   -2.6966   -0.5944    0.0512 C   0  0  0  0  0  0  0  0  0  0  0  0
   -4.8620   -0.3394    0.1618 H   0  0  0  0  0  0  0  0  0  0  0  0
   -3.9457    0.9529   -0.9489 H   0  0  0  0  0  0  0  0  0  0  0  0
   -3.9078    0.8330    0.8259 H   0  0  0  0  0  0  0  0  0  0  0  0
   -1.4176    0.1923    0.0303 C   0  0  0  0  0  0  0  0  0  0  0  0
   -2.7529   -1.3003   -0.8083 H   0  0  0  0  0  0  0  0  0  0  0  0
   -2.7287   -1.1584    0.9027 H   0  0  0  0  0  0  0  0  0  0  0  0
   -0.1608   -0.7082    0.0171 C   0  0  0  0  0  0  0  0  0  0  0  0
   -1.3907    0.8870    0.8777 H   0  0  0  0  0  0  0  0  0  0  0  0
   -1.4518    0.8263   -0.8604 H   0  0  0  0  0  0  0  0  0  0  0  0
   -0.1465   -1.2953    0.9021 H   0  0  0  0  0  0  0  0  0  0  0  0
    0.7623   -0.1007    0.0565 H   0  0  0  0  0  0  0  0  0  0  0  0
   -0.1249   -1.4054   -0.8583 H   0  0  0  0  0  0  0  0  0  0  0  0
  1  2  1  0  0  0  0
  1  3  1  0  0  0  0
  1  5  1  0  0  0  0
  2  8  1  0  0  0  0
  4  1  1  0  0  0  0
  6  2  1  0  0  0  0
  6 10  1  0  0  0  0
  7  2  1  0  0  0  0
  9  6  1  0  0  0  0
  9 13  1  0  0  0  0
  9 12  1  0  0  0  0
 11  6  1  0  0  0  0
 14  9  1  0  0  0  0
M  END
$$$$
