butane_opt
 OpenBabel08242015413D

 14 13  0  0  0  0  0  0  0  0999 V2000
   -3.9484    0.2592    0.0381 C   0  0  0  0  0  0  0  0  0  0  0  0
   -2.7079   -0.6015    0.0215 C   0  0  0  0  0  0  0  0  0  0  0  0
   -4.8879   -0.3729   -0.0553 H   0  0  0  0  0  0  0  0  0  0  0  0
   -3.9467    0.7315   -0.7497 H   0  0  0  0  0  0  0  0  0  0  0  0
   -3.9676    1.0103    0.9485 H   0  0  0  0  0  0  0  0  0  0  0  0
   -1.3982    0.2043   -0.0171 C   0  0  0  0  0  0  0  0  0  0  0  0
   -2.7651   -1.2663   -0.8382 H   0  0  0  0  0  0  0  0  0  0  0  0
   -2.7427   -1.2604    0.9205 H   0  0  0  0  0  0  0  0  0  0  0  0
   -0.1496   -0.7108    0.0481 C   0  0  0  0  0  0  0  0  0  0  0  0
   -1.4483    0.8642    0.8165 H   0  0  0  0  0  0  0  0  0  0  0  0
   -1.3417    0.8628   -0.9262 H   0  0  0  0  0  0  0  0  0  0  0  0
   -0.1095   -1.4001    0.9928 H   0  0  0  0  0  0  0  0  0  0  0  0
    0.7679   -0.1314    0.0162 H   0  0  0  0  0  0  0  0  0  0  0  0
   -0.1272   -1.3310   -0.7571 H   0  0  0  0  0  0  0  0  0  0  0  0
  1  5  1  0  0  0  0
  2  1  1  0  0  0  0
  2  8  1  0  0  0  0
  3  1  1  0  0  0  0
  4  1  1  0  0  0  0
  6  2  1  0  0  0  0
  6  9  1  0  0  0  0
  6 10  1  0  0  0  0
  7  2  1  0  0  0  0
  9 12  1  0  0  0  0
 11  6  1  0  0  0  0
 13  9  1  0  0  0  0
 14  9  1  0  0  0  0
M  END
$$$$
