butane_opt
 OpenBabel08242015413D

 14 13  0  0  0  0  0  0  0  0999 V2000
   -3.9326    0.2686    0.0374 C   0  0  0  0  0  0  0  0  0  0  0  0
   -2.6933   -0.6255    0.0130 C   0  0  0  0  0  0  0  0  0  0  0  0
   -4.8449   -0.3054    0.1441 H   0  0  0  0  0  0  0  0  0  0  0  0
   -4.0312    0.9675   -0.9144 H   0  0  0  0  0  0  0  0  0  0  0  0
   -3.9514    0.8342    0.8292 H   0  0  0  0  0  0  0  0  0  0  0  0
   -1.4013    0.1793   -0.0029 C   0  0  0  0  0  0  0  0  0  0  0  0
   -2.7178   -1.3045   -0.8487 H   0  0  0  0  0  0  0  0  0  0  0  0
   -2.6961   -1.2351    0.9238 H   0  0  0  0  0  0  0  0  0  0  0  0
   -0.1697   -0.6918    0.0399 C   0  0  0  0  0  0  0  0  0  0  0  0
   -1.4183    0.9230    0.9005 H   0  0  0  0  0  0  0  0  0  0  0  0
   -1.4038    0.8062   -0.8835 H   0  0  0  0  0  0  0  0  0  0  0  0
   -0.1917   -1.2833    0.9480 H   0  0  0  0  0  0  0  0  0  0  0  0
    0.7441   -0.0881    0.0867 H   0  0  0  0  0  0  0  0  0  0  0  0
   -0.1451   -1.3572   -0.8070 H   0  0  0  0  0  0  0  0  0  0  0  0
  1  3  1  0  0  0  0
  1  5  1  0  0  0  0
  2  1  1  0  0  0  0
  2  8  1  0  0  0  0
  4  1  1  0  0  0  0
  6  2  1  0  0  0  0
  6  9  1  0  0  0  0
  6 10  1  0  0  0  0
  7  2  1  0  0  0  0
  9 13  1  0  0  0  0
  9 12  1  0  0  0  0
 11  6  1  0  0  0  0
 14  9  1  0  0  0  0
M  END
$$$$
