14
butane_opt
C  -3.947122   0.274163   0.036200
C  -2.692921  -0.625667   0.018391
H  -4.836344  -0.293692   0.017659
H  -3.983956   0.863839  -0.818145
H  -3.931176   0.972422   0.913077
C  -1.396303   0.179827  -0.012359
H  -2.699519  -1.379297  -0.868429
H  -2.681133  -1.234155   0.910301
C  -0.180050  -0.687699   0.048838
H  -1.360336   0.877885   0.866599
H  -1.355210   0.765941  -0.892084
H  -0.159117  -1.391344   1.012109
H   0.738073  -0.092106  -0.038597
H  -0.163134  -1.239978  -0.745042
