14
butane_opt
C  -3.941184   0.273540   0.032636
C  -2.691739  -0.620235   0.028887
H  -4.844490  -0.305571  -0.044598
H  -3.932352   0.766250  -0.774560
H  -4.017387   1.042175   0.964236
C  -1.400421   0.162245  -0.016031
H  -2.742006  -1.314701  -0.849968
H  -2.706871  -1.163833   0.892375
C  -0.173333  -0.691398   0.054180
H  -1.339631   0.819119   0.823072
H  -1.421091   0.848114  -0.942661
H  -0.152303  -1.354901   0.988793
H   0.775584  -0.040196  -0.031952
H  -0.168003  -1.260748  -0.755238
