14
butane_opt
C  -3.951844   0.258730   0.008228
C  -2.716779  -0.603361   0.031745
H  -4.881808  -0.320500   0.069697
H  -3.950931   0.864881  -0.889384
H  -3.972738   0.909822   0.860586
C  -1.399700   0.189984   0.034718
H  -2.705320  -1.289269  -0.835017
H  -2.719426  -1.262917   0.942620
C  -0.151063  -0.700816   0.022650
H  -1.404045   0.903543   0.933869
H  -1.351109   0.796390  -0.851187
H  -0.022532  -1.415512   0.959954
H   0.757436  -0.117595  -0.118497
H  -0.144430  -1.270838  -0.792217
