14
butane_opt
C  -3.942676   0.273489   0.033428
C  -2.695324  -0.633754   0.032299
H  -4.834785  -0.307356   0.046179
H  -4.005680   0.914034  -0.845293
H  -3.953771   0.959744   0.912166
C  -1.404858   0.171734  -0.027091
H  -2.736478  -1.274314  -0.803056
H  -2.604613  -1.268239   0.905962
C  -0.177117  -0.681556   0.052813
H  -1.389057   0.845570   0.829818
H  -1.352454   0.787305  -0.924794
H  -0.197981  -1.201569   0.901641
H   0.735371  -0.062920   0.153075
H  -0.052950  -1.422412  -0.850706
