14
butane_opt
C  -3.950671   0.272921   0.000207
C  -2.702760  -0.626661   0.063734
H  -4.836571  -0.312581   0.088155
H  -3.974880   0.978174  -0.939270
H  -3.979457   0.854849   0.800397
C  -1.397757   0.172799   0.013909
H  -2.727999  -1.252375  -0.740874
H  -2.733002  -1.264134   0.968829
C  -0.156972  -0.689763   0.015273
H  -1.395864   0.910773   0.923851
H  -1.412716   0.755695  -0.855339
H  -0.132687  -1.177153   0.825979
H   0.763889  -0.058683   0.142876
H  -0.109358  -1.453570  -0.911599
