14
butane_opt
C  -3.959271   0.274228   0.021437
C  -2.699528  -0.638228   0.023484
H  -4.822565  -0.278323   0.064209
H  -4.018091   0.896750  -0.883001
H  -3.954353   0.969079   0.882536
C  -1.388448   0.184447   0.019132
H  -2.690233  -1.361490  -0.862112
H  -2.694583  -1.202418   0.884361
C  -0.165944  -0.691139   0.044694
H  -1.321021   0.824085   0.851821
H  -1.380759   0.822009  -0.874404
H  -0.102120  -1.341245   0.968769
H   0.728746  -0.087834  -0.129604
H  -0.209172  -1.257826  -0.758364
