butane_opt
 OpenBabel08242015413D

 14 13  0  0  0  0  0  0  0  0999 V2000
   -3.9297    0.2483    0.0049 C   0  0  0  0  0  0  0  0  0  0  0  0
   -2.6980   -0.5972    0.0408 C   0  0  0  0  0  0  0  0  0  0  0  0
   -4.8364   -0.3524    0.1178 H   0  0  0  0  0  0  0  0  0  0  0  0
   -3.9951    0.9595   -0.9358 H   0  0  0  0  0  0  0  0  0  0  0  0
   -3.9077    0.8161    0.7985 H   0  0  0  0  0  0  0  0  0  0  0  0
   -1.4093    0.1976    0.0285 C   0  0  0  0  0  0  0  0  0  0  0  0
   -2.7020   -1.2576   -0.8040 H   0  0  0  0  0  0  0  0  0  0  0  0
   -2.7427   -1.2780    0.9593 H   0  0  0  0  0  0  0  0  0  0  0  0
   -0.1642   -0.7006    0.0252 C   0  0  0  0  0  0  0  0  0  0  0  0
   -1.4400    0.9536    0.9162 H   0  0  0  0  0  0  0  0  0  0  0  0
   -1.4218    0.7728   -0.8111 H   0  0  0  0  0  0  0  0  0  0  0  0
   -0.1071   -1.3002    0.8812 H   0  0  0  0  0  0  0  0  0  0  0  0
    0.7156   -0.1585   -0.0342 H   0  0  0  0  0  0  0  0  0  0  0  0
   -0.1620   -1.4076   -0.8595 H   0  0  0  0  0  0  0  0  0  0  0  0
  1  2  1  0  0  0  0
  1  3  1  0  0  0  0
  1  5  1  0  0  0  0
  2  8  1  0  0  0  0
  4  1  1  0  0  0  0
  6  2  1  0  0  0  0
  6 10  1  0  0  0  0
  7  2  1  0  0  0  0
  9  6  1  0  0  0  0
  9 12  1  0  0  0  0
 11  6  1  0  0  0  0
 13  9  1  0  0  0  0
 14  9  1  0  0  0  0
M  END
$$$$
