butane_opt
 OpenBabel08242015413D

 14 13  0  0  0  0  0  0  0  0999 V2000
   -3.9440    0.2759   -0.0053 C   0  0  0  0  0  0  0  0  0  0  0  0
   -2.6904   -0.6321    0.0767 C   0  0  0  0  0  0  0  0  0  0  0  0
   -4.8328   -0.2993   -0.0012 H   0  0  0  0  0  0  0  0  0  0  0  0
   -3.9210    0.9075   -0.9210 H   0  0  0  0  0  0  0  0  0  0  0  0
   -3.9631    0.9004    0.8207 H   0  0  0  0  0  0  0  0  0  0  0  0
   -1.4050    0.1751    0.0210 C   0  0  0  0  0  0  0  0  0  0  0  0
   -2.7145   -1.2692   -0.7526 H   0  0  0  0  0  0  0  0  0  0  0  0
   -2.6682   -1.3228    1.0104 H   0  0  0  0  0  0  0  0  0  0  0  0
   -0.1710   -0.6821    0.0069 C   0  0  0  0  0  0  0  0  0  0  0  0
   -1.3939    0.9263    0.9114 H   0  0  0  0  0  0  0  0  0  0  0  0
   -1.4321    0.7723   -0.8710 H   0  0  0  0  0  0  0  0  0  0  0  0
   -0.2046   -1.2090    0.8384 H   0  0  0  0  0  0  0  0  0  0  0  0
    0.7238   -0.0654    0.1176 H   0  0  0  0  0  0  0  0  0  0  0  0
   -0.1055   -1.4529   -0.9227 H   0  0  0  0  0  0  0  0  0  0  0  0
  1  3  1  0  0  0  0
  1  2  1  0  0  0  0
  1  5  1  0  0  0  0
  2  8  1  0  0  0  0
  4  1  1  0  0  0  0
  6  2  1  0  0  0  0
  6 10  1  0  0  0  0
  7  2  1  0  0  0  0
  9  6  1  0  0  0  0
  9 13  1  0  0  0  0
  9 12  1  0  0  0  0
 11  6  1  0  0  0  0
 14  9  1  0  0  0  0
M  END
$$$$
