14
butane_opt
C  -3.954273   0.271194   0.056421
C  -2.681120  -0.626786  -0.001018
H  -4.797297  -0.287717   0.098721
H  -4.012567   0.886013  -0.847289
H  -3.913481   0.904857   0.879337
C  -1.403037   0.176081  -0.022017
H  -2.728171  -1.316074  -0.860775
H  -2.664682  -1.218847   0.877165
C  -0.176876  -0.681630   0.069168
H  -1.408810   0.784058   0.787329
H  -1.347609   0.858148  -0.962050
H  -0.167505  -1.259245   0.938660
H   0.734768  -0.087985   0.118276
H  -0.144440  -1.394337  -0.825173
