butane_opt
 OpenBabel08242015413D

 14 13  0  0  0  0  0  0  0  0999 V2000
   -3.9558    0.2504    0.0067 C   0  0  0  0  0  0  0  0  0  0  0  0
   -2.7112   -0.6010    0.0711 C   0  0  0  0  0  0  0  0  0  0  0  0
   -4.8655   -0.3473   -0.0667 H   0  0  0  0  0  0  0  0  0  0  0  0
   -3.8802    0.8305   -0.8852 H   0  0  0  0  0  0  0  0  0  0  0  0
   -4.0048    0.9747    0.8628 H   0  0  0  0  0  0  0  0  0  0  0  0
   -1.3915    0.1966    0.0127 C   0  0  0  0  0  0  0  0  0  0  0  0
   -2.7345   -1.2760   -0.7585 H   0  0  0  0  0  0  0  0  0  0  0  0
   -2.7448   -1.1865    0.9308 H   0  0  0  0  0  0  0  0  0  0  0  0
   -0.1518   -0.7035    0.0185 C   0  0  0  0  0  0  0  0  0  0  0  0
   -1.3410    0.8654    0.8573 H   0  0  0  0  0  0  0  0  0  0  0  0
   -1.4655    0.8407   -0.8857 H   0  0  0  0  0  0  0  0  0  0  0  0
   -0.0879   -1.3190    0.9080 H   0  0  0  0  0  0  0  0  0  0  0  0
    0.7491   -0.1466    0.0500 H   0  0  0  0  0  0  0  0  0  0  0  0
   -0.1244   -1.4243   -0.8708 H   0  0  0  0  0  0  0  0  0  0  0  0
  1  2  1  0  0  0  0
  1  5  1  0  0  0  0
  2  8  1  0  0  0  0
  3  1  1  0  0  0  0
  4  1  1  0  0  0  0
  6  9  1  0  0  0  0
  6  2  1  0  0  0  0
  6 10  1  0  0  0  0
  7  2  1  0  0  0  0
  9 13  1  0  0  0  0
  9 12  1  0  0  0  0
 11  6  1  0  0  0  0
 14  9  1  0  0  0  0
M  END
$$$$
