butane_opt
 OpenBabel08242015413D

 14 13  0  0  0  0  0  0  0  0999 V2000
   -3.9519    0.2701   -0.0021 C   0  0  0  0  0  0  0  0  0  0  0  0
   -2.7016   -0.6325    0.0378 C   0  0  0  0  0  0  0  0  0  0  0  0
   -4.8443   -0.2936    0.0305 H   0  0  0  0  0  0  0  0  0  0  0  0
   -4.0347    0.8988   -0.9079 H   0  0  0  0  0  0  0  0  0  0  0  0
   -3.9907    0.9754    0.8881 H   0  0  0  0  0  0  0  0  0  0  0  0
   -1.4019    0.1763    0.0413 C   0  0  0  0  0  0  0  0  0  0  0  0
   -2.6623   -1.2799   -0.7870 H   0  0  0  0  0  0  0  0  0  0  0  0
   -2.7317   -1.2937    0.9561 H   0  0  0  0  0  0  0  0  0  0  0  0
   -0.1529   -0.6825    0.0132 C   0  0  0  0  0  0  0  0  0  0  0  0
   -1.3225    0.8855    0.9592 H   0  0  0  0  0  0  0  0  0  0  0  0
   -1.4143    0.8011   -0.8456 H   0  0  0  0  0  0  0  0  0  0  0  0
   -0.0521   -1.3841    0.9843 H   0  0  0  0  0  0  0  0  0  0  0  0
    0.7483   -0.0830   -0.1006 H   0  0  0  0  0  0  0  0  0  0  0  0
   -0.2203   -1.2715   -0.8060 H   0  0  0  0  0  0  0  0  0  0  0  0
  1  3  1  0  0  0  0
  1  2  1  0  0  0  0
  1  5  1  0  0  0  0
  2  6  1  0  0  0  0
  2  8  1  0  0  0  0
  4  1  1  0  0  0  0
  6 10  1  0  0  0  0
  7  2  1  0  0  0  0
  9  6  1  0  0  0  0
  9 12  1  0  0  0  0
 11  6  1  0  0  0  0
 13  9  1  0  0  0  0
 14  9  1  0  0  0  0
M  END
$$$$
