butane_opt
 OpenBabel08242015413D

 14 13  0  0  0  0  0  0  0  0999 V2000
   -3.9419    0.2770    0.0014 C   0  0  0  0  0  0  0  0  0  0  0  0
   -2.6798   -0.6187    0.0649 C   0  0  0  0  0  0  0  0  0  0  0  0
   -4.8721   -0.3110   -0.0144 H   0  0  0  0  0  0  0  0  0  0  0  0
   -3.9425    0.8906   -0.8778 H   0  0  0  0  0  0  0  0  0  0  0  0
   -4.0340    0.9030    0.8211 H   0  0  0  0  0  0  0  0  0  0  0  0
   -1.3998    0.1637    0.0221 C   0  0  0  0  0  0  0  0  0  0  0  0
   -2.7384   -1.2757   -0.7719 H   0  0  0  0  0  0  0  0  0  0  0  0
   -2.6780   -1.2986    0.9980 H   0  0  0  0  0  0  0  0  0  0  0  0
   -0.1789   -0.6802    0.0119 C   0  0  0  0  0  0  0  0  0  0  0  0
   -1.3717    0.8233    0.8996 H   0  0  0  0  0  0  0  0  0  0  0  0
   -1.3881    0.8117   -0.8839 H   0  0  0  0  0  0  0  0  0  0  0  0
   -0.1798   -1.2207    0.8432 H   0  0  0  0  0  0  0  0  0  0  0  0
    0.7449   -0.0586    0.1073 H   0  0  0  0  0  0  0  0  0  0  0  0
   -0.1638   -1.4388   -0.8985 H   0  0  0  0  0  0  0  0  0  0  0  0
  1  2  1  0  0  0  0
  1  5  1  0  0  0  0
  2  8  1  0  0  0  0
  3  1  1  0  0  0  0
  4  1  1  0  0  0  0
  6  2  1  0  0  0  0
  6 10  1  0  0  0  0
  7  2  1  0  0  0  0
  9  6  1  0  0  0  0
  9 13  1  0  0  0  0
  9 12  1  0  0  0  0
 11  6  1  0  0  0  0
 14  9  1  0  0  0  0
M  END
$$$$
