butane_opt
 OpenBabel08242015413D

 14 13  0  0  0  0  0  0  0  0999 V2000
   -3.9521    0.2645   -0.0228 C   0  0  0  0  0  0  0  0  0  0  0  0
   -2.7058   -0.6251    0.0909 C   0  0  0  0  0  0  0  0  0  0  0  0
   -4.8523   -0.3423   -0.0918 H   0  0  0  0  0  0  0  0  0  0  0  0
   -3.8737    0.8304   -0.9150 H   0  0  0  0  0  0  0  0  0  0  0  0
   -4.0010    0.9935    0.8819 H   0  0  0  0  0  0  0  0  0  0  0  0
   -1.4029    0.2051    0.0380 C   0  0  0  0  0  0  0  0  0  0  0  0
   -2.7346   -1.2372   -0.7000 H   0  0  0  0  0  0  0  0  0  0  0  0
   -2.7786   -1.2914    1.0107 H   0  0  0  0  0  0  0  0  0  0  0  0
   -0.1510   -0.7006   -0.0044 C   0  0  0  0  0  0  0  0  0  0  0  0
   -1.3173    0.9126    0.9059 H   0  0  0  0  0  0  0  0  0  0  0  0
   -1.4532    0.7741   -0.8222 H   0  0  0  0  0  0  0  0  0  0  0  0
   -0.1161   -1.2925    0.8698 H   0  0  0  0  0  0  0  0  0  0  0  0
    0.7314   -0.1367   -0.0232 H   0  0  0  0  0  0  0  0  0  0  0  0
   -0.0913   -1.4098   -0.8966 H   0  0  0  0  0  0  0  0  0  0  0  0
  1  2  1  0  0  0  0
  1  5  1  0  0  0  0
  2  8  1  0  0  0  0
  3  1  1  0  0  0  0
  4  1  1  0  0  0  0
  6  2  1  0  0  0  0
  6 10  1  0  0  0  0
  7  2  1  0  0  0  0
  9  6  1  0  0  0  0
  9 12  1  0  0  0  0
 11  6  1  0  0  0  0
 13  9  1  0  0  0  0
 14  9  1  0  0  0  0
M  END
$$$$
