butane_opt
 OpenBabel08242015413D

 14 13  0  0  0  0  0  0  0  0999 V2000
   -3.9517    0.2567    0.0301 C   0  0  0  0  0  0  0  0  0  0  0  0
   -2.7005   -0.6184    0.0246 C   0  0  0  0  0  0  0  0  0  0  0  0
   -4.8465   -0.3338   -0.0533 H   0  0  0  0  0  0  0  0  0  0  0  0
   -3.9372    0.8026   -0.8240 H   0  0  0  0  0  0  0  0  0  0  0  0
   -4.0444    1.0426    0.9647 H   0  0  0  0  0  0  0  0  0  0  0  0
   -1.3964    0.2004   -0.0050 C   0  0  0  0  0  0  0  0  0  0  0  0
   -2.7534   -1.2706   -0.7861 H   0  0  0  0  0  0  0  0  0  0  0  0
   -2.7231   -1.2964    0.9468 H   0  0  0  0  0  0  0  0  0  0  0  0
   -0.1554   -0.7016    0.0448 C   0  0  0  0  0  0  0  0  0  0  0  0
   -1.4166    0.8737    0.8303 H   0  0  0  0  0  0  0  0  0  0  0  0
   -1.4241    0.8576   -0.9186 H   0  0  0  0  0  0  0  0  0  0  0  0
   -0.0812   -1.3221    0.9655 H   0  0  0  0  0  0  0  0  0  0  0  0
    0.7700   -0.1177   -0.0119 H   0  0  0  0  0  0  0  0  0  0  0  0
   -0.1187   -1.3502   -0.7960 H   0  0  0  0  0  0  0  0  0  0  0  0
  1  5  1  0  0  0  0
  2  1  1  0  0  0  0
  2  8  1  0  0  0  0
  3  1  1  0  0  0  0
  4  1  1  0  0  0  0
  6  2  1  0  0  0  0
  6  9  1  0  0  0  0
  6 10  1  0  0  0  0
  7  2  1  0  0  0  0
  9 12  1  0  0  0  0
 11  6  1  0  0  0  0
 13  9  1  0  0  0  0
 14  9  1  0  0  0  0
M  END
$$$$
