14
butane_opt
C  -3.930782   0.254331  -0.009849
C  -2.708188  -0.597045   0.084202
H  -4.889698  -0.398933  -0.013227
H  -3.903537   0.888753  -0.911733
H  -3.998836   0.896122   0.827383
C  -1.416179   0.187984   0.033576
H  -2.690493  -1.246812  -0.754361
H  -2.683455  -1.231257   0.950994
C  -0.156158  -0.703112   0.003605
H  -1.374563   0.857457   0.883960
H  -1.431640   0.844642  -0.879178
H  -0.166020  -1.231946   0.832566
H   0.728340  -0.103840   0.073208
H  -0.070000  -1.466629  -0.921894
