14
butane_opt
C  -3.966386   0.275948  -0.008572
C  -2.704710  -0.624524   0.089010
H  -4.869173  -0.288624  -0.133448
H  -3.852663   0.826744  -0.882226
H  -4.074871   0.990722   0.860679
C  -1.394555   0.165925   0.030189
H  -2.718934  -1.305827  -0.755908
H  -2.707093  -1.242546   0.994083
C  -0.152748  -0.683186   0.006557
H  -1.332444   0.867768   0.885306
H  -1.362448   0.812053  -0.871071
H  -0.104710  -1.284554   0.859471
H   0.753686  -0.083533  -0.039631
H  -0.143574  -1.376816  -0.884120
