14
butane_opt
C  -3.952780   0.274499  -0.009502
C  -2.702762  -0.625172   0.076870
H  -4.846341  -0.289650  -0.034507
H  -3.912913   0.880958  -0.897305
H  -4.092297   0.938042   0.853649
C  -1.385652   0.166143   0.032193
H  -2.733846  -1.255567  -0.740560
H  -2.691442  -1.248146   0.968434
C  -0.157226  -0.682712   0.004332
H  -1.378449   0.838264   0.909671
H  -1.409801   0.812996  -0.872418
H  -0.166051  -1.243092   0.861182
H   0.772453  -0.096832   0.040978
H  -0.185463  -1.402492  -0.901740
