14
butane_opt
C  -3.949562   0.256812   0.035217
C  -2.714122  -0.596027   0.011393
H  -4.861024  -0.330482   0.030233
H  -3.955419   0.831858  -0.837033
H  -3.931098   0.953044   0.909655
C  -1.401613   0.189407  -0.001589
H  -2.759747  -1.329534  -0.857631
H  -2.777546  -1.231409   0.918243
C  -0.139844  -0.701200   0.051028
H  -1.433244   0.875088   0.850205
H  -1.382102   0.801332  -0.886074
H  -0.030821  -1.405657   0.991091
H   0.752929  -0.128528  -0.083205
H  -0.187628  -1.286987  -0.733818
