butane_opt
 OpenBabel08242015413D

 14 13  0  0  0  0  0  0  0  0999 V2000
   -3.9536    0.2714   -0.0233 C   0  0  0  0  0  0  0  0  0  0  0  0
   -2.7041   -0.6227    0.0953 C   0  0  0  0  0  0  0  0  0  0  0  0
   -4.8772   -0.3247   -0.0907 H   0  0  0  0  0  0  0  0  0  0  0  0
   -3.9348    0.8653   -0.8990 H   0  0  0  0  0  0  0  0  0  0  0  0
   -4.0993    0.9911    0.8678 H   0  0  0  0  0  0  0  0  0  0  0  0
   -1.3850    0.1760    0.0404 C   0  0  0  0  0  0  0  0  0  0  0  0
   -2.7017   -1.2634   -0.7256 H   0  0  0  0  0  0  0  0  0  0  0  0
   -2.7448   -1.2824    0.9895 H   0  0  0  0  0  0  0  0  0  0  0  0
   -0.1527   -0.6931   -0.0017 C   0  0  0  0  0  0  0  0  0  0  0  0
   -1.4045    0.8680    0.8993 H   0  0  0  0  0  0  0  0  0  0  0  0
   -1.3850    0.7932   -0.8347 H   0  0  0  0  0  0  0  0  0  0  0  0
   -0.1106   -1.2263    0.8575 H   0  0  0  0  0  0  0  0  0  0  0  0
    0.7643   -0.0835   -0.0509 H   0  0  0  0  0  0  0  0  0  0  0  0
   -0.1802   -1.3936   -0.9092 H   0  0  0  0  0  0  0  0  0  0  0  0
  1  2  1  0  0  0  0
  1  5  1  0  0  0  0
  2  8  1  0  0  0  0
  3  1  1  0  0  0  0
  4  1  1  0  0  0  0
  6  2  1  0  0  0  0
  6 10  1  0  0  0  0
  7  2  1  0  0  0  0
  9  6  1  0  0  0  0
  9 12  1  0  0  0  0
 11  6  1  0  0  0  0
 13  9  1  0  0  0  0
 14  9  1  0  0  0  0
M  END
$$$$
