butane_opt
 OpenBabel08242015413D

 14 13  0  0  0  0  0  0  0  0999 V2000
   -3.9329    0.2542   -0.0187 C   0  0  0  0  0  0  0  0  0  0  0  0
   -2.7023   -0.5978    0.0848 C   0  0  0  0  0  0  0  0  0  0  0  0
   -4.8707   -0.3750   -0.0773 H   0  0  0  0  0  0  0  0  0  0  0  0
   -3.8684    0.8012   -0.9185 H   0  0  0  0  0  0  0  0  0  0  0  0
   -4.0209    0.9471    0.8627 H   0  0  0  0  0  0  0  0  0  0  0  0
   -1.4161    0.2039    0.0452 C   0  0  0  0  0  0  0  0  0  0  0  0
   -2.7019   -1.2236   -0.7267 H   0  0  0  0  0  0  0  0  0  0  0  0
   -2.7303   -1.2774    1.0071 H   0  0  0  0  0  0  0  0  0  0  0  0
   -0.1593   -0.7118   -0.0098 C   0  0  0  0  0  0  0  0  0  0  0  0
   -1.3281    0.8996    0.9030 H   0  0  0  0  0  0  0  0  0  0  0  0
   -1.4583    0.7964   -0.8210 H   0  0  0  0  0  0  0  0  0  0  0  0
   -0.1452   -1.3306    0.8940 H   0  0  0  0  0  0  0  0  0  0  0  0
    0.7740   -0.0944   -0.0121 H   0  0  0  0  0  0  0  0  0  0  0  0
   -0.1389   -1.4019   -0.8839 H   0  0  0  0  0  0  0  0  0  0  0  0
  1  2  1  0  0  0  0
  1  5  1  0  0  0  0
  2  8  1  0  0  0  0
  3  1  1  0  0  0  0
  4  1  1  0  0  0  0
  6  2  1  0  0  0  0
  6 10  1  0  0  0  0
  7  2  1  0  0  0  0
  9  6  1  0  0  0  0
  9 12  1  0  0  0  0
 11  6  1  0  0  0  0
 13  9  1  0  0  0  0
 14  9  1  0  0  0  0
M  END
$$$$
