14
butane_opt
C  -3.953245   0.269124  -0.004571
C  -2.692938  -0.625498   0.072385
H  -4.823972  -0.284640   0.033168
H  -3.992555   0.937696  -0.934866
H  -4.048494   0.892497   0.815122
C  -1.395532   0.175543   0.021653
H  -2.709112  -1.257328  -0.745314
H  -2.735003  -1.313662   1.002734
C  -0.157692  -0.683462   0.007708
H  -1.392968   0.907334   0.894472
H  -1.406410   0.755264  -0.829848
H  -0.186190  -1.173268   0.819667
H   0.769384  -0.088221   0.086426
H  -0.105877  -1.469942  -0.888763
