14
butane_opt
C  -3.940322   0.272135  -0.000771
C  -2.707885  -0.613042   0.058655
H  -4.895635  -0.345281  -0.082295
H  -3.888711   0.789148  -0.852435
H  -4.003267   0.947251   0.864379
C  -1.396572   0.183723   0.028429
H  -2.704233  -1.222573  -0.732365
H  -2.714682  -1.296102   0.991973
C  -0.162800  -0.694184   0.013842
H  -1.378817   0.861205   0.878419
H  -1.424913   0.822964  -0.838224
H  -0.083041  -1.309379   0.901118
H   0.741356  -0.116523  -0.024999
H  -0.182621  -1.394027  -0.864859
