butane_opt
 OpenBabel08242015413D

 14 13  0  0  0  0  0  0  0  0999 V2000
   -3.9381    0.2738    0.0557 C   0  0  0  0  0  0  0  0  0  0  0  0
   -2.6883   -0.6295    0.0125 C   0  0  0  0  0  0  0  0  0  0  0  0
   -4.8465   -0.3028    0.0649 H   0  0  0  0  0  0  0  0  0  0  0  0
   -3.9802    0.8851   -0.8228 H   0  0  0  0  0  0  0  0  0  0  0  0
   -3.9492    0.9600    0.9147 H   0  0  0  0  0  0  0  0  0  0  0  0
   -1.4142    0.1788   -0.0437 C   0  0  0  0  0  0  0  0  0  0  0  0
   -2.7597   -1.3776   -0.9020 H   0  0  0  0  0  0  0  0  0  0  0  0
   -2.6175   -1.2494    0.8926 H   0  0  0  0  0  0  0  0  0  0  0  0
   -0.1678   -0.6821    0.0730 C   0  0  0  0  0  0  0  0  0  0  0  0
   -1.3894    0.8018    0.8038 H   0  0  0  0  0  0  0  0  0  0  0  0
   -1.3608    0.8411   -0.9547 H   0  0  0  0  0  0  0  0  0  0  0  0
   -0.2529   -1.2283    0.9604 H   0  0  0  0  0  0  0  0  0  0  0  0
    0.7374   -0.0988    0.1178 H   0  0  0  0  0  0  0  0  0  0  0  0
   -0.1049   -1.3946   -0.8164 H   0  0  0  0  0  0  0  0  0  0  0  0
  1  3  1  0  0  0  0
  1  5  1  0  0  0  0
  2  1  1  0  0  0  0
  2  8  1  0  0  0  0
  4  1  1  0  0  0  0
  6  2  1  0  0  0  0
  6  9  1  0  0  0  0
  6 10  1  0  0  0  0
  7  2  1  0  0  0  0
  9 13  1  0  0  0  0
  9 12  1  0  0  0  0
 11  6  1  0  0  0  0
 14  9  1  0  0  0  0
M  END
$$$$
