butane_opt
 OpenBabel08242015413D

 14 13  0  0  0  0  0  0  0  0999 V2000
   -3.9380    0.2744    0.0442 C   0  0  0  0  0  0  0  0  0  0  0  0
   -2.6983   -0.6144    0.0054 C   0  0  0  0  0  0  0  0  0  0  0  0
   -4.8369   -0.3223    0.0109 H   0  0  0  0  0  0  0  0  0  0  0  0
   -3.9683    0.8186   -0.8426 H   0  0  0  0  0  0  0  0  0  0  0  0
   -3.9644    0.9668    0.9204 H   0  0  0  0  0  0  0  0  0  0  0  0
   -1.4046    0.1659   -0.0051 C   0  0  0  0  0  0  0  0  0  0  0  0
   -2.7362   -1.2997   -0.8480 H   0  0  0  0  0  0  0  0  0  0  0  0
   -2.7181   -1.2163    0.8756 H   0  0  0  0  0  0  0  0  0  0  0  0
   -0.1600   -0.6855    0.0559 C   0  0  0  0  0  0  0  0  0  0  0  0
   -1.4030    0.8445    0.8497 H   0  0  0  0  0  0  0  0  0  0  0  0
   -1.3870    0.7908   -0.8814 H   0  0  0  0  0  0  0  0  0  0  0  0
   -0.1669   -1.3963    1.0190 H   0  0  0  0  0  0  0  0  0  0  0  0
    0.7547   -0.0881   -0.1172 H   0  0  0  0  0  0  0  0  0  0  0  0
   -0.1907   -1.2491   -0.7416 H   0  0  0  0  0  0  0  0  0  0  0  0
  1  5  1  0  0  0  0
  2  1  1  0  0  0  0
  2  8  1  0  0  0  0
  3  1  1  0  0  0  0
  4  1  1  0  0  0  0
  6  2  1  0  0  0  0
  6  9  1  0  0  0  0
  6 10  1  0  0  0  0
  7  2  1  0  0  0  0
  9 12  1  0  0  0  0
 11  6  1  0  0  0  0
 13  9  1  0  0  0  0
 14  9  1  0  0  0  0
M  END
$$$$
