butane_opt
 OpenBabel08242015413D

 14 13  0  0  0  0  0  0  0  0999 V2000
   -3.9546    0.2635    0.0407 C   0  0  0  0  0  0  0  0  0  0  0  0
   -2.7014   -0.6032    0.0013 C   0  0  0  0  0  0  0  0  0  0  0  0
   -4.8779   -0.3497    0.0023 H   0  0  0  0  0  0  0  0  0  0  0  0
   -3.9970    0.7796   -0.7822 H   0  0  0  0  0  0  0  0  0  0  0  0
   -3.9163    0.9764    0.9403 H   0  0  0  0  0  0  0  0  0  0  0  0
   -1.3946    0.1876   -0.0099 C   0  0  0  0  0  0  0  0  0  0  0  0
   -2.7834   -1.3029   -0.8568 H   0  0  0  0  0  0  0  0  0  0  0  0
   -2.7014   -1.2320    0.9021 H   0  0  0  0  0  0  0  0  0  0  0  0
   -0.1609   -0.7017    0.0652 C   0  0  0  0  0  0  0  0  0  0  0  0
   -1.4054    0.8792    0.8293 H   0  0  0  0  0  0  0  0  0  0  0  0
   -1.3457    0.8510   -0.9140 H   0  0  0  0  0  0  0  0  0  0  0  0
   -0.0742   -1.4320    0.9928 H   0  0  0  0  0  0  0  0  0  0  0  0
    0.7621   -0.1098   -0.1031 H   0  0  0  0  0  0  0  0  0  0  0  0
   -0.1479   -1.2858   -0.7315 H   0  0  0  0  0  0  0  0  0  0  0  0
  1  5  1  0  0  0  0
  2  1  1  0  0  0  0
  2  8  1  0  0  0  0
  3  1  1  0  0  0  0
  4  1  1  0  0  0  0
  6  2  1  0  0  0  0
  6  9  1  0  0  0  0
  6 10  1  0  0  0  0
  7  2  1  0  0  0  0
  9 12  1  0  0  0  0
 11  6  1  0  0  0  0
 13  9  1  0  0  0  0
 14  9  1  0  0  0  0
M  END
$$$$
