butane_opt
 OpenBabel08242015413D

 14 13  0  0  0  0  0  0  0  0999 V2000
   -3.9331    0.2533   -0.0268 C   0  0  0  0  0  0  0  0  0  0  0  0
   -2.7049   -0.6095    0.0636 C   0  0  0  0  0  0  0  0  0  0  0  0
   -4.8593   -0.3652    0.0397 H   0  0  0  0  0  0  0  0  0  0  0  0
   -3.9256    0.9128   -0.9244 H   0  0  0  0  0  0  0  0  0  0  0  0
   -3.9375    0.9165    0.8424 H   0  0  0  0  0  0  0  0  0  0  0  0
   -1.4142    0.1996    0.0668 C   0  0  0  0  0  0  0  0  0  0  0  0
   -2.6305   -1.2366   -0.7613 H   0  0  0  0  0  0  0  0  0  0  0  0
   -2.7489   -1.2722    1.0036 H   0  0  0  0  0  0  0  0  0  0  0  0
   -0.1633   -0.7040   -0.0094 C   0  0  0  0  0  0  0  0  0  0  0  0
   -1.3668    0.9249    0.9447 H   0  0  0  0  0  0  0  0  0  0  0  0
   -1.4290    0.7717   -0.7851 H   0  0  0  0  0  0  0  0  0  0  0  0
   -0.0529   -1.3725    0.9210 H   0  0  0  0  0  0  0  0  0  0  0  0
    0.7184   -0.1162   -0.1235 H   0  0  0  0  0  0  0  0  0  0  0  0
   -0.1991   -1.3146   -0.8411 H   0  0  0  0  0  0  0  0  0  0  0  0
  1  3  1  0  0  0  0
  1  2  1  0  0  0  0
  1  5  1  0  0  0  0
  2  6  1  0  0  0  0
  2  8  1  0  0  0  0
  4  1  1  0  0  0  0
  6 10  1  0  0  0  0
  7  2  1  0  0  0  0
  9  6  1  0  0  0  0
  9 12  1  0  0  0  0
 11  6  1  0  0  0  0
 13  9  1  0  0  0  0
 14  9  1  0  0  0  0
M  END
$$$$
