14
butane_opt
C  -3.943326   0.279299   0.035667
C  -2.706185  -0.627141   0.013411
H  -4.823224  -0.305320   0.119592
H  -4.031843   0.913028  -0.873793
H  -3.934051   0.909586   0.890123
C  -1.395447   0.162435  -0.010242
H  -2.730447  -1.318156  -0.839033
H  -2.688150  -1.190701   0.859085
C  -0.157603  -0.681132   0.052764
H  -1.418197   0.863304   0.883828
H  -1.377686   0.774276  -0.897876
H  -0.181669  -1.343915   0.976684
H   0.765121  -0.075306   0.014929
H  -0.180244  -1.291754  -0.791986
