14
butane_opt
C  -3.955053   0.260168   0.013313
C  -2.708509  -0.621093   0.061772
H  -4.836404  -0.307592  -0.124485
H  -3.906013   0.841422  -0.884167
H  -4.050705   0.986076   0.899902
C  -1.394470   0.193305   0.011992
H  -2.696822  -1.258889  -0.764502
H  -2.701185  -1.262880   0.956291
C  -0.157169  -0.696727   0.017002
H  -1.358186   0.892691   0.874135
H  -1.394509   0.800602  -0.842931
H  -0.096509  -1.323670   0.896822
H   0.736616  -0.128611  -0.007365
H  -0.133006  -1.340202  -0.807752
