butane_opt
 OpenBabel08242015413D

 14 13  0  0  0  0  0  0  0  0999 V2000
   -3.9264    0.2508    0.0438 C   0  0  0  0  0  0  0  0  0  0  0  0
   -2.7016   -0.6040    0.0147 C   0  0  0  0  0  0  0  0  0  0  0  0
   -4.8523   -0.3633    0.1147 H   0  0  0  0  0  0  0  0  0  0  0  0
   -3.9855    0.8544   -0.8364 H   0  0  0  0  0  0  0  0  0  0  0  0
   -3.8796    0.9366    0.9304 H   0  0  0  0  0  0  0  0  0  0  0  0
   -1.4266    0.2017   -0.0351 C   0  0  0  0  0  0  0  0  0  0  0  0
   -2.7475   -1.2763   -0.8463 H   0  0  0  0  0  0  0  0  0  0  0  0
   -2.7007   -1.2289    0.8814 H   0  0  0  0  0  0  0  0  0  0  0  0
   -0.1517   -0.7066    0.0629 C   0  0  0  0  0  0  0  0  0  0  0  0
   -1.4066    0.8717    0.7924 H   0  0  0  0  0  0  0  0  0  0  0  0
   -1.4232    0.8256   -0.9176 H   0  0  0  0  0  0  0  0  0  0  0  0
   -0.2130   -1.2681    0.9331 H   0  0  0  0  0  0  0  0  0  0  0  0
    0.7429   -0.1527    0.1613 H   0  0  0  0  0  0  0  0  0  0  0  0
   -0.0726   -1.3814   -0.8043 H   0  0  0  0  0  0  0  0  0  0  0  0
  1  3  1  0  0  0  0
  1  5  1  0  0  0  0
  2  1  1  0  0  0  0
  2  8  1  0  0  0  0
  4  1  1  0  0  0  0
  6  2  1  0  0  0  0
  6  9  1  0  0  0  0
  6 10  1  0  0  0  0
  7  2  1  0  0  0  0
  9 13  1  0  0  0  0
  9 12  1  0  0  0  0
 11  6  1  0  0  0  0
 14  9  1  0  0  0  0
M  END
$$$$
