14
butane_opt
C  -3.928536   0.256006  -0.008227
C  -2.704260  -0.603635   0.069114
H  -4.863733  -0.373475   0.069828
H  -3.948152   0.919767  -0.953239
H  -3.921781   0.899939   0.869494
C  -1.417951   0.189537   0.015820
H  -2.721211  -1.255784  -0.757308
H  -2.701849  -1.268771   1.018592
C  -0.159756  -0.705113   0.009396
H  -1.383664   0.906048   0.901893
H  -1.471389   0.809575  -0.855558
H  -0.173506  -1.202884   0.833962
H   0.782965  -0.083906   0.171220
H  -0.092170  -1.464854  -0.905510
