butane_opt
 OpenBabel08242015413D

 14 13  0  0  0  0  0  0  0  0999 V2000
   -3.9596    0.2626    0.0495 C   0  0  0  0  0  0  0  0  0  0  0  0
   -2.6954   -0.6066    0.0019 C   0  0  0  0  0  0  0  0  0  0  0  0
   -4.8808   -0.3441    0.1265 H   0  0  0  0  0  0  0  0  0  0  0  0
   -4.0377    0.9298   -0.8862 H   0  0  0  0  0  0  0  0  0  0  0  0
   -3.8846    0.8948    0.8981 H   0  0  0  0  0  0  0  0  0  0  0  0
   -1.3971    0.1831   -0.0106 C   0  0  0  0  0  0  0  0  0  0  0  0
   -2.7444   -1.3917   -0.9264 H   0  0  0  0  0  0  0  0  0  0  0  0
   -2.7443   -1.1653    0.8596 H   0  0  0  0  0  0  0  0  0  0  0  0
   -0.1532   -0.6935    0.0642 C   0  0  0  0  0  0  0  0  0  0  0  0
   -1.3951    0.8442    0.8171 H   0  0  0  0  0  0  0  0  0  0  0  0
   -1.3529    0.8274   -0.9129 H   0  0  0  0  0  0  0  0  0  0  0  0
   -0.1331   -1.3874    1.0179 H   0  0  0  0  0  0  0  0  0  0  0  0
    0.7379   -0.1119   -0.0212 H   0  0  0  0  0  0  0  0  0  0  0  0
   -0.1227   -1.3135   -0.7916 H   0  0  0  0  0  0  0  0  0  0  0  0
  1  3  1  0  0  0  0
  1  5  1  0  0  0  0
  2  1  1  0  0  0  0
  2  8  1  0  0  0  0
  4  1  1  0  0  0  0
  6  2  1  0  0  0  0
  6  9  1  0  0  0  0
  6 10  1  0  0  0  0
  7  2  1  0  0  0  0
  9 12  1  0  0  0  0
 11  6  1  0  0  0  0
 13  9  1  0  0  0  0
 14  9  1  0  0  0  0
M  END
$$$$
