butane_opt
 OpenBabel08242015413D

 14 13  0  0  0  0  0  0  0  0999 V2000
   -3.9338    0.2730    0.0489 C   0  0  0  0  0  0  0  0  0  0  0  0
   -2.6972   -0.6229    0.0178 C   0  0  0  0  0  0  0  0  0  0  0  0
   -4.8492   -0.3418    0.0535 H   0  0  0  0  0  0  0  0  0  0  0  0
   -3.9823    0.8905   -0.8306 H   0  0  0  0  0  0  0  0  0  0  0  0
   -3.9687    0.9880    0.9472 H   0  0  0  0  0  0  0  0  0  0  0  0
   -1.4030    0.1724   -0.0398 C   0  0  0  0  0  0  0  0  0  0  0  0
   -2.7284   -1.3626   -0.8560 H   0  0  0  0  0  0  0  0  0  0  0  0
   -2.6442   -1.2459    0.9109 H   0  0  0  0  0  0  0  0  0  0  0  0
   -0.1798   -0.6812    0.0649 C   0  0  0  0  0  0  0  0  0  0  0  0
   -1.4172    0.8474    0.7966 H   0  0  0  0  0  0  0  0  0  0  0  0
   -1.3215    0.8264   -0.9347 H   0  0  0  0  0  0  0  0  0  0  0  0
   -0.2303   -1.2670    0.9432 H   0  0  0  0  0  0  0  0  0  0  0  0
    0.7376   -0.1007    0.1094 H   0  0  0  0  0  0  0  0  0  0  0  0
   -0.0529   -1.4004   -0.8121 H   0  0  0  0  0  0  0  0  0  0  0  0
  1  3  1  0  0  0  0
  1  5  1  0  0  0  0
  2  1  1  0  0  0  0
  2  8  1  0  0  0  0
  4  1  1  0  0  0  0
  6  2  1  0  0  0  0
  6  9  1  0  0  0  0
  6 10  1  0  0  0  0
  7  2  1  0  0  0  0
  9 13  1  0  0  0  0
  9 12  1  0  0  0  0
 11  6  1  0  0  0  0
 14  9  1  0  0  0  0
M  END
$$$$
