14
butane_opt
C  -3.943936   0.262305  -0.002213
C  -2.701349  -0.616576   0.071163
H  -4.856288  -0.345300  -0.093273
H  -3.888282   0.810642  -0.839678
H  -4.098354   0.993079   0.881770
C  -1.398026   0.195706   0.019717
H  -2.755066  -1.243779  -0.745949
H  -2.736027  -1.267176   0.997123
C  -0.159519  -0.694692   0.006915
H  -1.378464   0.898897   0.877321
H  -1.377110   0.788231  -0.843518
H  -0.111747  -1.343401   0.915696
H   0.738120  -0.139954   0.002003
H  -0.121082  -1.392356  -0.853735
