butane_opt
 OpenBabel08242015413D

 14 13  0  0  0  0  0  0  0  0999 V2000
   -3.9547    0.2746   -0.0079 C   0  0  0  0  0  0  0  0  0  0  0  0
   -2.7071   -0.6320    0.0814 C   0  0  0  0  0  0  0  0  0  0  0  0
   -4.8445   -0.3061   -0.1546 H   0  0  0  0  0  0  0  0  0  0  0  0
   -3.9034    0.8204   -0.8834 H   0  0  0  0  0  0  0  0  0  0  0  0
   -4.0169    1.0191    0.8933 H   0  0  0  0  0  0  0  0  0  0  0  0
   -1.3893    0.1827    0.0303 C   0  0  0  0  0  0  0  0  0  0  0  0
   -2.6989   -1.2776   -0.7460 H   0  0  0  0  0  0  0  0  0  0  0  0
   -2.7459   -1.3186    1.0066 H   0  0  0  0  0  0  0  0  0  0  0  0
   -0.1610   -0.6912    0.0125 C   0  0  0  0  0  0  0  0  0  0  0  0
   -1.3497    0.8918    0.8747 H   0  0  0  0  0  0  0  0  0  0  0  0
   -1.4131    0.8425   -0.8810 H   0  0  0  0  0  0  0  0  0  0  0  0
   -0.0577   -1.2507    0.8597 H   0  0  0  0  0  0  0  0  0  0  0  0
    0.7337   -0.1233   -0.0383 H   0  0  0  0  0  0  0  0  0  0  0  0
   -0.1869   -1.3808   -0.8820 H   0  0  0  0  0  0  0  0  0  0  0  0
  1  2  1  0  0  0  0
  1  5  1  0  0  0  0
  2  8  1  0  0  0  0
  3  1  1  0  0  0  0
  4  1  1  0  0  0  0
  6  2  1  0  0  0  0
  6 10  1  0  0  0  0
  7  2  1  0  0  0  0
  9  6  1  0  0  0  0
  9 12  1  0  0  0  0
 11  6  1  0  0  0  0
 13  9  1  0  0  0  0
 14  9  1  0  0  0  0
M  END
$$$$
