butane_opt
 OpenBabel08242015413D

 14 13  0  0  0  0  0  0  0  0999 V2000
   -3.9434    0.2557   -0.0027 C   0  0  0  0  0  0  0  0  0  0  0  0
   -2.7175   -0.6130    0.0807 C   0  0  0  0  0  0  0  0  0  0  0  0
   -4.8520   -0.3386   -0.0150 H   0  0  0  0  0  0  0  0  0  0  0  0
   -3.9333    0.8911   -0.9351 H   0  0  0  0  0  0  0  0  0  0  0  0
   -4.0075    0.9043    0.8210 H   0  0  0  0  0  0  0  0  0  0  0  0
   -1.4009    0.2084    0.0160 C   0  0  0  0  0  0  0  0  0  0  0  0
   -2.7239   -1.2560   -0.7666 H   0  0  0  0  0  0  0  0  0  0  0  0
   -2.7199   -1.2777    1.0077 H   0  0  0  0  0  0  0  0  0  0  0  0
   -0.1439   -0.7125    0.0102 C   0  0  0  0  0  0  0  0  0  0  0  0
   -1.3950    0.9206    0.9071 H   0  0  0  0  0  0  0  0  0  0  0  0
   -1.3761    0.8105   -0.8397 H   0  0  0  0  0  0  0  0  0  0  0  0
   -0.1679   -1.1987    0.8388 H   0  0  0  0  0  0  0  0  0  0  0  0
    0.7304   -0.1444    0.0785 H   0  0  0  0  0  0  0  0  0  0  0  0
   -0.0958   -1.4606   -0.9285 H   0  0  0  0  0  0  0  0  0  0  0  0
  1  2  1  0  0  0  0
  1  5  1  0  0  0  0
  2  8  1  0  0  0  0
  3  1  1  0  0  0  0
  4  1  1  0  0  0  0
  6  2  1  0  0  0  0
  6 10  1  0  0  0  0
  7  2  1  0  0  0  0
  9  6  1  0  0  0  0
  9 13  1  0  0  0  0
  9 12  1  0  0  0  0
 11  6  1  0  0  0  0
 14  9  1  0  0  0  0
M  END
$$$$
