butane_opt
 OpenBabel08242015413D

 14 13  0  0  0  0  0  0  0  0999 V2000
   -3.9351    0.2617   -0.0096 C   0  0  0  0  0  0  0  0  0  0  0  0
   -2.7093   -0.6145    0.0690 C   0  0  0  0  0  0  0  0  0  0  0  0
   -4.8627   -0.3602   -0.0342 H   0  0  0  0  0  0  0  0  0  0  0  0
   -3.9164    0.8048   -0.8754 H   0  0  0  0  0  0  0  0  0  0  0  0
   -3.9555    0.9500    0.8809 H   0  0  0  0  0  0  0  0  0  0  0  0
   -1.4051    0.2003    0.0278 C   0  0  0  0  0  0  0  0  0  0  0  0
   -2.6739   -1.2529   -0.7269 H   0  0  0  0  0  0  0  0  0  0  0  0
   -2.7527   -1.2483    0.9821 H   0  0  0  0  0  0  0  0  0  0  0  0
   -0.1602   -0.7013    0.0097 C   0  0  0  0  0  0  0  0  0  0  0  0
   -1.4031    0.9075    0.9122 H   0  0  0  0  0  0  0  0  0  0  0  0
   -1.4056    0.8185   -0.8747 H   0  0  0  0  0  0  0  0  0  0  0  0
   -0.0797   -1.3237    0.8985 H   0  0  0  0  0  0  0  0  0  0  0  0
    0.6970   -0.1607    0.0020 H   0  0  0  0  0  0  0  0  0  0  0  0
   -0.1530   -1.3719   -0.8821 H   0  0  0  0  0  0  0  0  0  0  0  0
  1  2  1  0  0  0  0
  1  5  1  0  0  0  0
  2  8  1  0  0  0  0
  3  1  1  0  0  0  0
  4  1  1  0  0  0  0
  6  2  1  0  0  0  0
  6 10  1  0  0  0  0
  7  2  1  0  0  0  0
  9  6  1  0  0  0  0
  9 12  1  0  0  0  0
 11  6  1  0  0  0  0
 13  9  1  0  0  0  0
 14  9  1  0  0  0  0
M  END
$$$$
