14
butane_opt
C  -3.941129   0.258175   0.035439
C  -2.704115  -0.613205   0.022837
H  -4.836800  -0.335624  -0.046212
H  -3.984275   0.802615  -0.787785
H  -3.971448   0.988626   0.928633
C  -1.414214   0.201766  -0.012800
H  -2.712591  -1.335547  -0.855521
H  -2.733498  -1.200020   0.894201
C  -0.154716  -0.699852   0.048585
H  -1.364668   0.864114   0.865481
H  -1.404667   0.783957  -0.876149
H  -0.088519  -1.432779   1.005515
H   0.755569  -0.130762  -0.090964
H  -0.112692  -1.232079  -0.707566
