14
butane_opt
C  -3.936121   0.267770  -0.018568
C  -2.689978  -0.626603   0.065062
H  -4.859787  -0.341178   0.073428
H  -3.949736   0.930918  -0.952807
H  -3.948477   0.938186   0.853694
C  -1.418029   0.184173   0.052484
H  -2.661720  -1.326272  -0.801575
H  -2.725205  -1.253392   0.962028
C  -0.175174  -0.691060   0.006766
H  -1.371285   0.885907   0.923120
H  -1.381548   0.823310  -0.824796
H  -0.056896  -1.326504   0.889856
H   0.770788  -0.090187  -0.086770
H  -0.210395  -1.318092  -0.861781
