butane_opt
 OpenBabel08242015413D

 14 13  0  0  0  0  0  0  0  0999 V2000
   -3.9576    0.2671    0.0301 C   0  0  0  0  0  0  0  0  0  0  0  0
   -2.6976   -0.6252    0.0158 C   0  0  0  0  0  0  0  0  0  0  0  0
   -4.8397   -0.2744    0.0256 H   0  0  0  0  0  0  0  0  0  0  0  0
   -3.9456    0.8426   -0.8409 H   0  0  0  0  0  0  0  0  0  0  0  0
   -3.9947    0.9894    0.9092 H   0  0  0  0  0  0  0  0  0  0  0  0
   -1.3977    0.1748    0.0139 C   0  0  0  0  0  0  0  0  0  0  0  0
   -2.6766   -1.3150   -0.8357 H   0  0  0  0  0  0  0  0  0  0  0  0
   -2.6998   -1.2130    0.9039 H   0  0  0  0  0  0  0  0  0  0  0  0
   -0.1576   -0.6925    0.0476 C   0  0  0  0  0  0  0  0  0  0  0  0
   -1.4066    0.8267    0.8365 H   0  0  0  0  0  0  0  0  0  0  0  0
   -1.3825    0.8560   -0.9189 H   0  0  0  0  0  0  0  0  0  0  0  0
   -0.1173   -1.3509    0.9575 H   0  0  0  0  0  0  0  0  0  0  0  0
    0.7864   -0.0632   -0.0941 H   0  0  0  0  0  0  0  0  0  0  0  0
   -0.2245   -1.2563   -0.7760 H   0  0  0  0  0  0  0  0  0  0  0  0
  1  5  1  0  0  0  0
  2  1  1  0  0  0  0
  2  8  1  0  0  0  0
  3  1  1  0  0  0  0
  4  1  1  0  0  0  0
  6  2  1  0  0  0  0
  6  9  1  0  0  0  0
  6 10  1  0  0  0  0
  7  2  1  0  0  0  0
  9 12  1  0  0  0  0
 11  6  1  0  0  0  0
 13  9  1  0  0  0  0
 14  9  1  0  0  0  0
M  END
$$$$
