14
butane_opt
C  -3.958072   0.277249   0.052818
C  -2.698824  -0.621195  -0.007211
H  -4.883645  -0.313333   0.173898
H  -4.071534   0.900269  -0.868996
H  -3.901308   0.895250   0.885636
C  -1.398432   0.167485  -0.016649
H  -2.757937  -1.387721  -0.911897
H  -2.681332  -1.195465   0.856269
C  -0.148505  -0.681670   0.068857
H  -1.377852   0.813601   0.797163
H  -1.371806   0.857540  -0.941267
H  -0.151849  -1.322104   0.991379
H   0.736931  -0.092658   0.068152
H  -0.120184  -1.329171  -0.781826
