14
butane_opt
C  -3.954998   0.266621   0.046207
C  -2.699620  -0.626103   0.014222
H  -4.857020  -0.302522   0.076285
H  -4.019137   0.899918  -0.824230
H  -3.961982   0.963917   0.923654
C  -1.400187   0.181222  -0.038342
H  -2.776962  -1.276957  -0.839297
H  -2.682692  -1.245456   0.893609
C  -0.156821  -0.695520   0.067707
H  -1.370667   0.880963   0.843882
H  -1.361898   0.817875  -0.945905
H  -0.216968  -1.257674   0.934555
H   0.803818  -0.047123   0.104269
H  -0.046370  -1.418801  -0.814875
