butane_opt
 OpenBabel08242015413D

 14 13  0  0  0  0  0  0  0  0999 V2000
   -3.9539    0.2748    0.0387 C   0  0  0  0  0  0  0  0  0  0  0  0
   -2.6866   -0.6276    0.0193 C   0  0  0  0  0  0  0  0  0  0  0  0
   -4.8572   -0.3140    0.0148 H   0  0  0  0  0  0  0  0  0  0  0  0
   -4.0219    0.8637   -0.8354 H   0  0  0  0  0  0  0  0  0  0  0  0
   -3.9297    0.9727    0.9192 H   0  0  0  0  0  0  0  0  0  0  0  0
   -1.3950    0.1674   -0.0097 C   0  0  0  0  0  0  0  0  0  0  0  0
   -2.6788   -1.2891   -0.8133 H   0  0  0  0  0  0  0  0  0  0  0  0
   -2.6972   -1.2360    0.8864 H   0  0  0  0  0  0  0  0  0  0  0  0
   -0.1680   -0.6806    0.0497 C   0  0  0  0  0  0  0  0  0  0  0  0
   -1.4081    0.7844    0.8135 H   0  0  0  0  0  0  0  0  0  0  0  0
   -1.3941    0.8709   -0.9321 H   0  0  0  0  0  0  0  0  0  0  0  0
   -0.2148   -1.2729    0.9575 H   0  0  0  0  0  0  0  0  0  0  0  0
    0.7826   -0.0849    0.0763 H   0  0  0  0  0  0  0  0  0  0  0  0
   -0.1658   -1.3736   -0.8250 H   0  0  0  0  0  0  0  0  0  0  0  0
  1  5  1  0  0  0  0
  2  1  1  0  0  0  0
  2  8  1  0  0  0  0
  3  1  1  0  0  0  0
  4  1  1  0  0  0  0
  6  2  1  0  0  0  0
  6  9  1  0  0  0  0
  6 10  1  0  0  0  0
  7  2  1  0  0  0  0
  9 13  1  0  0  0  0
  9 12  1  0  0  0  0
 11  6  1  0  0  0  0
 14  9  1  0  0  0  0
M  END
$$$$
