butane_opt
 OpenBabel08242015413D

 14 13  0  0  0  0  0  0  0  0999 V2000
   -3.9294    0.2548   -0.0113 C   0  0  0  0  0  0  0  0  0  0  0  0
   -2.7064   -0.5997    0.0921 C   0  0  0  0  0  0  0  0  0  0  0  0
   -4.8737   -0.3560   -0.1024 H   0  0  0  0  0  0  0  0  0  0  0  0
   -3.8268    0.8536   -0.9130 H   0  0  0  0  0  0  0  0  0  0  0  0
   -4.0146    0.9311    0.8345 H   0  0  0  0  0  0  0  0  0  0  0  0
   -1.4087    0.1965    0.0348 C   0  0  0  0  0  0  0  0  0  0  0  0
   -2.6923   -1.2845   -0.7484 H   0  0  0  0  0  0  0  0  0  0  0  0
   -2.7765   -1.2550    0.9967 H   0  0  0  0  0  0  0  0  0  0  0  0
   -0.1709   -0.7003   -0.0058 C   0  0  0  0  0  0  0  0  0  0  0  0
   -1.3630    0.8686    0.9083 H   0  0  0  0  0  0  0  0  0  0  0  0
   -1.4373    0.8431   -0.8483 H   0  0  0  0  0  0  0  0  0  0  0  0
   -0.0569   -1.3047    0.8770 H   0  0  0  0  0  0  0  0  0  0  0  0
    0.7217   -0.1223    0.0363 H   0  0  0  0  0  0  0  0  0  0  0  0
   -0.1255   -1.4656   -0.9179 H   0  0  0  0  0  0  0  0  0  0  0  0
  1  2  1  0  0  0  0
  1  5  1  0  0  0  0
  2  8  1  0  0  0  0
  3  1  1  0  0  0  0
  4  1  1  0  0  0  0
  6  2  1  0  0  0  0
  6 10  1  0  0  0  0
  7  2  1  0  0  0  0
  9  6  1  0  0  0  0
  9 13  1  0  0  0  0
  9 12  1  0  0  0  0
 11  6  1  0  0  0  0
 14  9  1  0  0  0  0
M  END
$$$$
