butane_opt
 OpenBabel08242015413D

 14 13  0  0  0  0  0  0  0  0999 V2000
   -3.9382    0.2771    0.0552 C   0  0  0  0  0  0  0  0  0  0  0  0
   -2.6957   -0.6302   -0.0049 C   0  0  0  0  0  0  0  0  0  0  0  0
   -4.8205   -0.3076    0.1618 H   0  0  0  0  0  0  0  0  0  0  0  0
   -3.9997    0.9673   -0.8948 H   0  0  0  0  0  0  0  0  0  0  0  0
   -3.8861    0.9098    0.8644 H   0  0  0  0  0  0  0  0  0  0  0  0
   -1.4027    0.1732   -0.0182 C   0  0  0  0  0  0  0  0  0  0  0  0
   -2.7436   -1.4119   -0.9213 H   0  0  0  0  0  0  0  0  0  0  0  0
   -2.6390   -1.2086    0.8534 H   0  0  0  0  0  0  0  0  0  0  0  0
   -0.1785   -0.6844    0.0723 C   0  0  0  0  0  0  0  0  0  0  0  0
   -1.3898    0.8480    0.8452 H   0  0  0  0  0  0  0  0  0  0  0  0
   -1.3452    0.8059   -0.9301 H   0  0  0  0  0  0  0  0  0  0  0  0
   -0.1816   -1.3057    0.9831 H   0  0  0  0  0  0  0  0  0  0  0  0
    0.7185   -0.0860   -0.0134 H   0  0  0  0  0  0  0  0  0  0  0  0
   -0.1615   -1.3011   -0.7687 H   0  0  0  0  0  0  0  0  0  0  0  0
  1  3  1  0  0  0  0
  1  5  1  0  0  0  0
  2  1  1  0  0  0  0
  2  8  1  0  0  0  0
  4  1  1  0  0  0  0
  6  2  1  0  0  0  0
  6  9  1  0  0  0  0
  6 10  1  0  0  0  0
  7  2  1  0  0  0  0
  9 12  1  0  0  0  0
 11  6  1  0  0  0  0
 13  9  1  0  0  0  0
 14  9  1  0  0  0  0
M  END
$$$$
