14
butane_opt
C  -3.956839   0.275840   0.006109
C  -2.699025  -0.626957   0.068782
H  -4.850928  -0.308123  -0.091864
H  -3.957019   0.873239  -0.870618
H  -4.086526   0.909492   0.848875
C  -1.393889   0.172337   0.020875
H  -2.690707  -1.276409  -0.769047
H  -2.715024  -1.263372   0.974402
C  -0.152671  -0.681699   0.014031
H  -1.377872   0.828334   0.869667
H  -1.415126   0.827989  -0.869177
H  -0.115949  -1.253661   0.869340
H   0.752372  -0.064060   0.050993
H  -0.141803  -1.422519  -0.897790
