14
butane_opt
C  -3.947065   0.247719   0.046521
C  -2.709997  -0.601264   0.012064
H  -4.870726  -0.366701   0.071490
H  -4.027850   0.814282  -0.812739
H  -3.944070   0.974169   0.965331
C  -1.413693   0.198837  -0.027288
H  -2.717556  -1.277815  -0.863082
H  -2.727064  -1.155129   0.860177
C  -0.139939  -0.709871   0.072264
H  -1.406612   0.816178   0.760342
H  -1.374598   0.890822  -0.978289
H  -0.146368  -1.303707   0.959098
H   0.773570  -0.107691   0.061581
H  -0.043981  -1.393412  -0.819683
