butane_opt
 OpenBabel08242015413D

 14 13  0  0  0  0  0  0  0  0999 V2000
   -3.9442    0.2657   -0.0052 C   0  0  0  0  0  0  0  0  0  0  0  0
   -2.7133   -0.6234    0.0538 C   0  0  0  0  0  0  0  0  0  0  0  0
   -4.8376   -0.3183    0.0655 H   0  0  0  0  0  0  0  0  0  0  0  0
   -3.9836    0.9237   -0.9350 H   0  0  0  0  0  0  0  0  0  0  0  0
   -3.9594    0.8771    0.8200 H   0  0  0  0  0  0  0  0  0  0  0  0
   -1.4044    0.2020    0.0481 C   0  0  0  0  0  0  0  0  0  0  0  0
   -2.7293   -1.3067   -0.8189 H   0  0  0  0  0  0  0  0  0  0  0  0
   -2.7182   -1.2171    0.9252 H   0  0  0  0  0  0  0  0  0  0  0  0
   -0.1574   -0.7008    0.0125 C   0  0  0  0  0  0  0  0  0  0  0  0
   -1.3607    0.8763    0.8937 H   0  0  0  0  0  0  0  0  0  0  0  0
   -1.3879    0.7856   -0.8354 H   0  0  0  0  0  0  0  0  0  0  0  0
   -0.0168   -1.3716    0.9320 H   0  0  0  0  0  0  0  0  0  0  0  0
    0.7936   -0.1002   -0.0701 H   0  0  0  0  0  0  0  0  0  0  0  0
   -0.1986   -1.3337   -0.8439 H   0  0  0  0  0  0  0  0  0  0  0  0
  1  2  1  0  0  0  0
  1  3  1  0  0  0  0
  1  5  1  0  0  0  0
  2  8  1  0  0  0  0
  4  1  1  0  0  0  0
  6  2  1  0  0  0  0
  6 10  1  0  0  0  0
  7  2  1  0  0  0  0
  9  6  1  0  0  0  0
  9 12  1  0  0  0  0
 11  6  1  0  0  0  0
 13  9  1  0  0  0  0
 14  9  1  0  0  0  0
M  END
$$$$
