14
butane_opt
C  -3.956382   0.248970   0.002069
C  -2.704310  -0.596591   0.069085
H  -4.898322  -0.358211   0.054080
H  -3.933504   0.941859  -0.949938
H  -4.003306   0.860186   0.815808
C  -1.404862   0.194099   0.019178
H  -2.724868  -1.242155  -0.771112
H  -2.708200  -1.275883   0.992582
C  -0.149578  -0.709489   0.011413
H  -1.382583   0.920615   0.886763
H  -1.362395   0.806172  -0.849666
H  -0.149616  -1.181818   0.808263
H   0.753959  -0.138864   0.130677
H  -0.021601  -1.459138  -0.921230
