butane_opt
 OpenBabel08242015413D

 14 13  0  0  0  0  0  0  0  0999 V2000
   -3.9518    0.2595    0.0205 C   0  0  0  0  0  0  0  0  0  0  0  0
   -2.6986   -0.6110    0.0517 C   0  0  0  0  0  0  0  0  0  0  0  0
   -4.9188   -0.3585    0.0441 H   0  0  0  0  0  0  0  0  0  0  0  0
   -3.9371    0.8767   -0.9110 H   0  0  0  0  0  0  0  0  0  0  0  0
   -4.0025    0.9253    0.8737 H   0  0  0  0  0  0  0  0  0  0  0  0
   -1.3980    0.1964    0.0030 C   0  0  0  0  0  0  0  0  0  0  0  0
   -2.7000   -1.2840   -0.8258 H   0  0  0  0  0  0  0  0  0  0  0  0
   -2.7029   -1.2441    0.9512 H   0  0  0  0  0  0  0  0  0  0  0  0
   -0.1568   -0.7016    0.0282 C   0  0  0  0  0  0  0  0  0  0  0  0
   -1.3726    0.8263    0.8251 H   0  0  0  0  0  0  0  0  0  0  0  0
   -1.4554    0.8502   -0.9049 H   0  0  0  0  0  0  0  0  0  0  0  0
   -0.1863   -1.2327    0.8694 H   0  0  0  0  0  0  0  0  0  0  0  0
    0.7691   -0.0997    0.1482 H   0  0  0  0  0  0  0  0  0  0  0  0
   -0.0475   -1.4576   -0.8717 H   0  0  0  0  0  0  0  0  0  0  0  0
  1  3  1  0  0  0  0
  1  2  1  0  0  0  0
  1  5  1  0  0  0  0
  2  8  1  0  0  0  0
  4  1  1  0  0  0  0
  6  9  1  0  0  0  0
  6  2  1  0  0  0  0
  6 10  1  0  0  0  0
  7  2  1  0  0  0  0
  9 13  1  0  0  0  0
  9 12  1  0  0  0  0
 11  6  1  0  0  0  0
 14  9  1  0  0  0  0
M  END
$$$$
