butane_opt
 OpenBabel08242015413D

 14 13  0  0  0  0  0  0  0  0999 V2000
   -3.9525    0.2489   -0.0055 C   0  0  0  0  0  0  0  0  0  0  0  0
   -2.7112   -0.5965    0.0654 C   0  0  0  0  0  0  0  0  0  0  0  0
   -4.8479   -0.3479   -0.0444 H   0  0  0  0  0  0  0  0  0  0  0  0
   -3.9551    0.9184   -0.9637 H   0  0  0  0  0  0  0  0  0  0  0  0
   -4.0169    0.8862    0.8234 H   0  0  0  0  0  0  0  0  0  0  0  0
   -1.4031    0.1920    0.0523 C   0  0  0  0  0  0  0  0  0  0  0  0
   -2.7053   -1.3026   -0.7856 H   0  0  0  0  0  0  0  0  0  0  0  0
   -2.7408   -1.2268    0.9773 H   0  0  0  0  0  0  0  0  0  0  0  0
   -0.1347   -0.7055   -0.0025 C   0  0  0  0  0  0  0  0  0  0  0  0
   -1.3448    0.9075    0.9254 H   0  0  0  0  0  0  0  0  0  0  0  0
   -1.4668    0.8166   -0.8103 H   0  0  0  0  0  0  0  0  0  0  0  0
   -0.0822   -1.3347    0.9186 H   0  0  0  0  0  0  0  0  0  0  0  0
    0.7509   -0.1351   -0.0913 H   0  0  0  0  0  0  0  0  0  0  0  0
   -0.1823   -1.3236   -0.8274 H   0  0  0  0  0  0  0  0  0  0  0  0
  1  2  1  0  0  0  0
  1  5  1  0  0  0  0
  2  8  1  0  0  0  0
  3  1  1  0  0  0  0
  4  1  1  0  0  0  0
  6  2  1  0  0  0  0
  6 10  1  0  0  0  0
  7  2  1  0  0  0  0
  9  6  1  0  0  0  0
  9 12  1  0  0  0  0
 11  6  1  0  0  0  0
 13  9  1  0  0  0  0
 14  9  1  0  0  0  0
M  END
$$$$
