butane_opt
 OpenBabel08242015413D

 14 13  0  0  0  0  0  0  0  0999 V2000
   -3.9423    0.2589    0.0399 C   0  0  0  0  0  0  0  0  0  0  0  0
   -2.7222   -0.6009    0.0036 C   0  0  0  0  0  0  0  0  0  0  0  0
   -4.8638   -0.3616    0.1609 H   0  0  0  0  0  0  0  0  0  0  0  0
   -4.0836    0.9218   -0.8615 H   0  0  0  0  0  0  0  0  0  0  0  0
   -3.8610    0.8685    0.9074 H   0  0  0  0  0  0  0  0  0  0  0  0
   -1.4032    0.1944   -0.0089 C   0  0  0  0  0  0  0  0  0  0  0  0
   -2.7695   -1.3530   -0.8940 H   0  0  0  0  0  0  0  0  0  0  0  0
   -2.6907   -1.2151    0.8534 H   0  0  0  0  0  0  0  0  0  0  0  0
   -0.1420   -0.7072    0.0619 C   0  0  0  0  0  0  0  0  0  0  0  0
   -1.4215    0.8346    0.8164 H   0  0  0  0  0  0  0  0  0  0  0  0
   -1.3641    0.8828   -0.9433 H   0  0  0  0  0  0  0  0  0  0  0  0
   -0.1207   -1.2954    0.9567 H   0  0  0  0  0  0  0  0  0  0  0  0
    0.7567   -0.1366    0.0679 H   0  0  0  0  0  0  0  0  0  0  0  0
   -0.0841   -1.3563   -0.7925 H   0  0  0  0  0  0  0  0  0  0  0  0
  1  3  1  0  0  0  0
  1  5  1  0  0  0  0
  2  1  1  0  0  0  0
  2  8  1  0  0  0  0
  4  1  1  0  0  0  0
  6  2  1  0  0  0  0
  6  9  1  0  0  0  0
  6 10  1  0  0  0  0
  7  2  1  0  0  0  0
  9 13  1  0  0  0  0
  9 12  1  0  0  0  0
 11  6  1  0  0  0  0
 14  9  1  0  0  0  0
M  END
$$$$
