14
butane_opt
C  -3.936938   0.251161   0.053151
C  -2.715682  -0.606901  -0.008854
H  -4.839928  -0.330273   0.170817
H  -4.042995   0.921949  -0.879587
H  -3.904328   0.863126   0.876257
C  -1.415336   0.201581  -0.023113
H  -2.758404  -1.298108  -0.869208
H  -2.726070  -1.202466   0.856631
C  -0.136677  -0.706677   0.065137
H  -1.417626   0.913695   0.868656
H  -1.345918   0.803689  -0.869174
H  -0.150311  -1.343190   0.985304
H   0.702576  -0.145311  -0.001984
H  -0.074587  -1.330968  -0.742853
