14
butane_opt
C  -3.940354   0.251568  -0.013125
C  -2.700607  -0.597949   0.066130
H  -4.879273  -0.391641   0.019856
H  -3.961198   0.879434  -0.909167
H  -3.926886   0.952347   0.859281
C  -1.409767   0.188732   0.036680
H  -2.645359  -1.255382  -0.778643
H  -2.717028  -1.265101   0.994141
C  -0.159399  -0.699528   0.008741
H  -1.382524   0.911068   0.927540
H  -1.401852   0.811534  -0.833605
H  -0.141897  -1.324584   0.887207
H   0.731122  -0.141785  -0.046091
H  -0.161102  -1.372098  -0.864975
