14
butane_opt
C  -3.930838   0.253166   0.050133
C  -2.705588  -0.601046   0.009646
H  -4.831219  -0.340573  -0.005706
H  -3.907319   0.811073  -0.828092
H  -3.941143   0.954271   0.942327
C  -1.404408   0.200991  -0.010393
H  -2.750883  -1.326755  -0.885075
H  -2.725316  -1.164223   0.829747
C  -0.166505  -0.707032   0.053601
H  -1.458908   0.854083   0.807373
H  -1.400809   0.849984  -0.903197
H  -0.099614  -1.471561   1.056972
H   0.760232  -0.105606  -0.062728
H  -0.183119  -1.280950  -0.727032
