14
butane_opt
C  -3.965966   0.276132  -0.002465
C  -2.700979  -0.622913   0.077270
H  -4.865872  -0.306470  -0.034974
H  -3.973460   0.906985  -0.932402
H  -4.016806   0.901367   0.803649
C  -1.397926   0.170898   0.025077
H  -2.675982  -1.273232  -0.723079
H  -2.699940  -1.310728   1.000083
C  -0.147787  -0.679316   0.001657
H  -1.319610   0.858435   0.890470
H  -1.407203   0.757520  -0.830272
H  -0.186596  -1.199488   0.820678
H   0.756510  -0.101534   0.116590
H  -0.085958  -1.438340  -0.905156
