14
butane_opt
C  -3.939618   0.260363   0.017858
C  -2.693252  -0.615476   0.049082
H  -4.877423  -0.363368  -0.045243
H  -3.928403   0.845237  -0.855076
H  -3.949419   0.989822   0.921187
C  -1.413536   0.194870  -0.008427
H  -2.748434  -1.303124  -0.776466
H  -2.674629  -1.279970   0.954490
C  -0.161482  -0.691439   0.033529
H  -1.399822   0.905135   0.875424
H  -1.393991   0.813670  -0.887006
H  -0.162368  -1.325803   0.929819
H   0.712632  -0.134123   0.050103
H  -0.105181  -1.403695  -0.837882
