14
butane_opt
C  -3.939258   0.270402   0.041669
C  -2.690715  -0.629051   0.000607
H  -4.829842  -0.266898   0.035748
H  -3.977932   0.821715  -0.824376
H  -3.935330   1.005689   0.936167
C  -1.405188   0.176003  -0.001557
H  -2.742209  -1.310508  -0.867784
H  -2.662833  -1.257073   0.871355
C  -0.176173  -0.690949   0.053965
H  -1.390656   0.872599   0.859816
H  -1.342719   0.858875  -0.913892
H  -0.149343  -1.415825   1.022130
H   0.757486  -0.075295  -0.076393
H  -0.217147  -1.218917  -0.722145
