14
butane_opt
C  -3.932884   0.275703   0.004538
C  -2.698359  -0.626680   0.064167
H  -4.871170  -0.323541   0.034367
H  -3.991296   0.925028  -0.916779
H  -3.981218   0.948276   0.843112
C  -1.400983   0.165748   0.010558
H  -2.684302  -1.270675  -0.785235
H  -2.732576  -1.272906   0.992950
C  -0.168677  -0.684356   0.017534
H  -1.366983   0.890705   0.886487
H  -1.417236   0.756495  -0.861375
H  -0.233027  -1.207308   0.875039
H   0.771424  -0.073432   0.088206
H  -0.104649  -1.413993  -0.889142
