butane_opt
 OpenBabel08242015413D

 14 13  0  0  0  0  0  0  0  0999 V2000
   -3.9371    0.2621    0.0357 C   0  0  0  0  0  0  0  0  0  0  0  0
   -2.7121   -0.6050    0.0381 C   0  0  0  0  0  0  0  0  0  0  0  0
   -4.8881   -0.3857   -0.0575 H   0  0  0  0  0  0  0  0  0  0  0  0
   -3.8660    0.7867   -0.8125 H   0  0  0  0  0  0  0  0  0  0  0  0
   -3.9610    1.0124    0.9207 H   0  0  0  0  0  0  0  0  0  0  0  0
   -1.4067    0.1915   -0.0168 C   0  0  0  0  0  0  0  0  0  0  0  0
   -2.7656   -1.2804   -0.8381 H   0  0  0  0  0  0  0  0  0  0  0  0
   -2.6343   -1.2204    0.8910 H   0  0  0  0  0  0  0  0  0  0  0  0
   -0.1570   -0.7021    0.0493 C   0  0  0  0  0  0  0  0  0  0  0  0
   -1.4007    0.8396    0.8243 H   0  0  0  0  0  0  0  0  0  0  0  0
   -1.3891    0.8415   -0.9402 H   0  0  0  0  0  0  0  0  0  0  0  0
   -0.1741   -1.3475    0.9853 H   0  0  0  0  0  0  0  0  0  0  0  0
    0.7361   -0.1041    0.0249 H   0  0  0  0  0  0  0  0  0  0  0  0
   -0.1252   -1.3835   -0.8294 H   0  0  0  0  0  0  0  0  0  0  0  0
  1  2  1  0  0  0  0
  1  5  1  0  0  0  0
  2  8  1  0  0  0  0
  3  1  1  0  0  0  0
  4  1  1  0  0  0  0
  6  2  1  0  0  0  0
  6  9  1  0  0  0  0
  6 10  1  0  0  0  0
  7  2  1  0  0  0  0
  9 12  1  0  0  0  0
 11  6  1  0  0  0  0
 13  9  1  0  0  0  0
 14  9  1  0  0  0  0
M  END
$$$$
