butane_opt
 OpenBabel08242015413D

 14 13  0  0  0  0  0  0  0  0999 V2000
   -3.9398    0.2753    0.0427 C   0  0  0  0  0  0  0  0  0  0  0  0
   -2.6882   -0.6274    0.0019 C   0  0  0  0  0  0  0  0  0  0  0  0
   -4.8309   -0.2869    0.0048 H   0  0  0  0  0  0  0  0  0  0  0  0
   -3.9992    0.8325   -0.8105 H   0  0  0  0  0  0  0  0  0  0  0  0
   -4.0299    0.9611    0.9192 H   0  0  0  0  0  0  0  0  0  0  0  0
   -1.4018    0.1740    0.0058 C   0  0  0  0  0  0  0  0  0  0  0  0
   -2.7243   -1.3941   -0.8862 H   0  0  0  0  0  0  0  0  0  0  0  0
   -2.6697   -1.2128    0.8680 H   0  0  0  0  0  0  0  0  0  0  0  0
   -0.1725   -0.6797    0.0543 C   0  0  0  0  0  0  0  0  0  0  0  0
   -1.3977    0.8339    0.8407 H   0  0  0  0  0  0  0  0  0  0  0  0
   -1.3907    0.8344   -0.9058 H   0  0  0  0  0  0  0  0  0  0  0  0
   -0.1240   -1.4413    1.0446 H   0  0  0  0  0  0  0  0  0  0  0  0
    0.7659   -0.0916   -0.1641 H   0  0  0  0  0  0  0  0  0  0  0  0
   -0.1990   -1.2025   -0.7112 H   0  0  0  0  0  0  0  0  0  0  0  0
  1  5  1  0  0  0  0
  2  6  1  0  0  0  0
  2  1  1  0  0  0  0
  2  8  1  0  0  0  0
  3  1  1  0  0  0  0
  4  1  1  0  0  0  0
  6  9  1  0  0  0  0
  6 10  1  0  0  0  0
  7  2  1  0  0  0  0
  9 12  1  0  0  0  0
 11  6  1  0  0  0  0
 13  9  1  0  0  0  0
 14  9  1  0  0  0  0
M  END
$$$$
