butane_opt
 OpenBabel08242015413D

 14 13  0  0  0  0  0  0  0  0999 V2000
   -3.9468    0.2746   -0.0131 C   0  0  0  0  0  0  0  0  0  0  0  0
   -2.6905   -0.6195    0.0761 C   0  0  0  0  0  0  0  0  0  0  0  0
   -4.8698   -0.3312   -0.0623 H   0  0  0  0  0  0  0  0  0  0  0  0
   -3.8825    0.8722   -0.8945 H   0  0  0  0  0  0  0  0  0  0  0  0
   -4.0306    0.9644    0.8438 H   0  0  0  0  0  0  0  0  0  0  0  0
   -1.3961    0.1683    0.0490 C   0  0  0  0  0  0  0  0  0  0  0  0
   -2.6698   -1.2652   -0.7625 H   0  0  0  0  0  0  0  0  0  0  0  0
   -2.7239   -1.3069    0.9915 H   0  0  0  0  0  0  0  0  0  0  0  0
   -0.1694   -0.6807    0.0047 C   0  0  0  0  0  0  0  0  0  0  0  0
   -1.3787    0.8383    0.8979 H   0  0  0  0  0  0  0  0  0  0  0  0
   -1.4237    0.8282   -0.8821 H   0  0  0  0  0  0  0  0  0  0  0  0
   -0.1322   -1.2974    0.8777 H   0  0  0  0  0  0  0  0  0  0  0  0
    0.7716   -0.0663   -0.0338 H   0  0  0  0  0  0  0  0  0  0  0  0
   -0.2552   -1.4196   -0.9334 H   0  0  0  0  0  0  0  0  0  0  0  0
  1  2  1  0  0  0  0
  1  5  1  0  0  0  0
  2  8  1  0  0  0  0
  3  1  1  0  0  0  0
  4  1  1  0  0  0  0
  6  2  1  0  0  0  0
  6 10  1  0  0  0  0
  7  2  1  0  0  0  0
  9  6  1  0  0  0  0
  9 12  1  0  0  0  0
 11  6  1  0  0  0  0
 13  9  1  0  0  0  0
 14  9  1  0  0  0  0
M  END
$$$$
