14
butane_opt
C  -3.937183   0.250816  -0.021800
C  -2.700680  -0.615440   0.078572
H  -4.865161  -0.347144  -0.019778
H  -3.916250   0.892607  -0.950903
H  -4.002821   0.942852   0.824157
C  -1.417773   0.206607   0.055945
H  -2.770736  -1.273752  -0.749926
H  -2.746374  -1.228143   0.966842
C  -0.143710  -0.702911  -0.000282
H  -1.389804   0.911188   0.929308
H  -1.448362   0.799717  -0.810623
H  -0.048828  -1.328473   0.908317
H   0.743635  -0.151663  -0.134946
H  -0.182355  -1.362529  -0.877191
