butane_opt
 OpenBabel08242015413D

 14 13  0  0  0  0  0  0  0  0999 V2000
   -3.9639    0.2855    0.0353 C   0  0  0  0  0  0  0  0  0  0  0  0
   -2.7040   -0.6307    0.0052 C   0  0  0  0  0  0  0  0  0  0  0  0
   -4.8799   -0.3329    0.0507 H   0  0  0  0  0  0  0  0  0  0  0  0
   -3.9856    0.8725   -0.8267 H   0  0  0  0  0  0  0  0  0  0  0  0
   -3.9762    0.9677    0.9021 H   0  0  0  0  0  0  0  0  0  0  0  0
   -1.3855    0.1733    0.0141 C   0  0  0  0  0  0  0  0  0  0  0  0
   -2.7203   -1.3652   -0.8868 H   0  0  0  0  0  0  0  0  0  0  0  0
   -2.6983   -1.2543    0.8909 H   0  0  0  0  0  0  0  0  0  0  0  0
   -0.1597   -0.6848    0.0514 C   0  0  0  0  0  0  0  0  0  0  0  0
   -1.4220    0.8302    0.8502 H   0  0  0  0  0  0  0  0  0  0  0  0
   -1.3152    0.8137   -0.9177 H   0  0  0  0  0  0  0  0  0  0  0  0
   -0.0719   -1.3948    0.9950 H   0  0  0  0  0  0  0  0  0  0  0  0
    0.7734   -0.0807   -0.1478 H   0  0  0  0  0  0  0  0  0  0  0  0
   -0.1799   -1.2335   -0.7322 H   0  0  0  0  0  0  0  0  0  0  0  0
  1  3  1  0  0  0  0
  1  5  1  0  0  0  0
  2  6  1  0  0  0  0
  2  1  1  0  0  0  0
  2  8  1  0  0  0  0
  4  1  1  0  0  0  0
  6  9  1  0  0  0  0
  6 10  1  0  0  0  0
  7  2  1  0  0  0  0
  9 12  1  0  0  0  0
 11  6  1  0  0  0  0
 13  9  1  0  0  0  0
 14  9  1  0  0  0  0
M  END
$$$$
