butane_opt
 OpenBabel08242015413D

 14 13  0  0  0  0  0  0  0  0999 V2000
   -3.9415    0.2696    0.0235 C   0  0  0  0  0  0  0  0  0  0  0  0
   -2.6894   -0.6270    0.0328 C   0  0  0  0  0  0  0  0  0  0  0  0
   -4.8602   -0.3321   -0.0173 H   0  0  0  0  0  0  0  0  0  0  0  0
   -3.9342    0.8538   -0.8780 H   0  0  0  0  0  0  0  0  0  0  0  0
   -3.9858    0.9702    0.9179 H   0  0  0  0  0  0  0  0  0  0  0  0
   -1.4126    0.1880    0.0025 C   0  0  0  0  0  0  0  0  0  0  0  0
   -2.7321   -1.3241   -0.8313 H   0  0  0  0  0  0  0  0  0  0  0  0
   -2.6495   -1.2464    0.9030 H   0  0  0  0  0  0  0  0  0  0  0  0
   -0.1766   -0.6932    0.0395 C   0  0  0  0  0  0  0  0  0  0  0  0
   -1.3433    0.9094    0.9219 H   0  0  0  0  0  0  0  0  0  0  0  0
   -1.3813    0.7981   -0.8782 H   0  0  0  0  0  0  0  0  0  0  0  0
   -0.0623   -1.4077    0.9773 H   0  0  0  0  0  0  0  0  0  0  0  0
    0.7529   -0.0805   -0.0678 H   0  0  0  0  0  0  0  0  0  0  0  0
   -0.1914   -1.2548   -0.7741 H   0  0  0  0  0  0  0  0  0  0  0  0
  1  2  1  0  0  0  0
  1  5  1  0  0  0  0
  2  8  1  0  0  0  0
  3  1  1  0  0  0  0
  4  1  1  0  0  0  0
  6  2  1  0  0  0  0
  6  9  1  0  0  0  0
  6 10  1  0  0  0  0
  7  2  1  0  0  0  0
  9 12  1  0  0  0  0
 11  6  1  0  0  0  0
 13  9  1  0  0  0  0
 14  9  1  0  0  0  0
M  END
$$$$
