14
butane_opt
C  -3.934347   0.253367   0.051085
C  -2.688951  -0.599631  -0.008783
H  -4.868477  -0.366463   0.153131
H  -4.010285   0.915357  -0.868039
H  -3.877001   0.866924   0.881840
C  -1.417688   0.200883  -0.004237
H  -2.739060  -1.352332  -0.920401
H  -2.661348  -1.228661   0.851845
C  -0.173774  -0.704624   0.064289
H  -1.448018   0.831459   0.818214
H  -1.331432   0.871707  -0.925924
H  -0.119405  -1.338578   0.969561
H   0.746988  -0.120927  -0.016316
H  -0.132024  -1.343991  -0.740448
