14
butane_opt
C  -3.954763   0.260837  -0.008292
C  -2.703163  -0.622483   0.070452
H  -4.876770  -0.353600  -0.028848
H  -3.916837   0.897523  -0.930147
H  -4.033598   0.920911   0.838767
C  -1.401784   0.196770   0.040383
H  -2.688411  -1.277023  -0.775706
H  -2.722549  -1.222205   0.934237
C  -0.145763  -0.690383   0.006991
H  -1.378793   0.928792   0.955782
H  -1.414040   0.777181  -0.824106
H  -0.025904  -1.404589   0.920900
H   0.721763  -0.144962  -0.104768
H  -0.218628  -1.335569  -0.852485
