14
butane_opt
C  -3.954381   0.265629   0.038518
C  -2.707055  -0.619652   0.003354
H  -4.842736  -0.298893   0.194006
H  -4.107357   0.930124  -0.872016
H  -3.885654   0.883499   0.875582
C  -1.409604   0.174450  -0.011363
H  -2.704957  -1.322391  -0.849384
H  -2.712801  -1.185826   0.840688
C  -0.135486  -0.690330   0.057320
H  -1.409419   0.855779   0.852792
H  -1.341409   0.820756  -0.888198
H  -0.189906  -1.304485   0.965201
H   0.754463  -0.077731   0.026821
H  -0.104415  -1.333428  -0.769084
