butane_opt
 OpenBabel08242015413D

 14 13  0  0  0  0  0  0  0  0999 V2000
   -3.9458    0.2618   -0.0081 C   0  0  0  0  0  0  0  0  0  0  0  0
   -2.7079   -0.6114    0.0766 C   0  0  0  0  0  0  0  0  0  0  0  0
   -4.8681   -0.3759    0.0527 H   0  0  0  0  0  0  0  0  0  0  0  0
   -3.9316    0.8963   -0.9176 H   0  0  0  0  0  0  0  0  0  0  0  0
   -3.9442    0.8801    0.8186 H   0  0  0  0  0  0  0  0  0  0  0  0
   -1.4058    0.2054    0.0239 C   0  0  0  0  0  0  0  0  0  0  0  0
   -2.7717   -1.2903   -0.7830 H   0  0  0  0  0  0  0  0  0  0  0  0
   -2.7487   -1.2517    0.9782 H   0  0  0  0  0  0  0  0  0  0  0  0
   -0.1570   -0.7043    0.0083 C   0  0  0  0  0  0  0  0  0  0  0  0
   -1.3442    0.8960    0.8651 H   0  0  0  0  0  0  0  0  0  0  0  0
   -1.4145    0.8469   -0.8739 H   0  0  0  0  0  0  0  0  0  0  0  0
   -0.0916   -1.2511    0.8649 H   0  0  0  0  0  0  0  0  0  0  0  0
    0.7387   -0.1261    0.1393 H   0  0  0  0  0  0  0  0  0  0  0  0
   -0.0562   -1.5187   -0.9234 H   0  0  0  0  0  0  0  0  0  0  0  0
  1  3  1  0  0  0  0
  1  2  1  0  0  0  0
  1  5  1  0  0  0  0
  2  8  1  0  0  0  0
  4  1  1  0  0  0  0
  6  2  1  0  0  0  0
  6 10  1  0  0  0  0
  7  2  1  0  0  0  0
  9  6  1  0  0  0  0
  9 13  1  0  0  0  0
  9 12  1  0  0  0  0
 11  6  1  0  0  0  0
 14  9  1  0  0  0  0
M  END
$$$$
