14
butane_opt
C  -3.927442   0.248770  -0.016321
C  -2.693568  -0.598969   0.064238
H  -4.865157  -0.358646   0.116335
H  -3.977112   0.951192  -0.989329
H  -3.951606   0.848857   0.794519
C  -1.418162   0.193981   0.053885
H  -2.742829  -1.260901  -0.766095
H  -2.718595  -1.252053   0.961552
C  -0.159927  -0.704574   0.009445
H  -1.404252   0.906148   0.914496
H  -1.419878   0.823286  -0.854988
H  -0.090897  -1.242604   0.857181
H   0.730988  -0.109133  -0.023544
H  -0.185815  -1.454613  -0.923704
