butane_opt
 OpenBabel08242015413D

 14 13  0  0  0  0  0  0  0  0999 V2000
   -3.9497    0.2561    0.0381 C   0  0  0  0  0  0  0  0  0  0  0  0
   -2.7098   -0.6015    0.0127 C   0  0  0  0  0  0  0  0  0  0  0  0
   -4.8744   -0.3490    0.0070 H   0  0  0  0  0  0  0  0  0  0  0  0
   -3.9607    0.7760   -0.7998 H   0  0  0  0  0  0  0  0  0  0  0  0
   -3.9204    0.9733    0.9446 H   0  0  0  0  0  0  0  0  0  0  0  0
   -1.4075    0.1921   -0.0032 C   0  0  0  0  0  0  0  0  0  0  0  0
   -2.6948   -1.2992   -0.8643 H   0  0  0  0  0  0  0  0  0  0  0  0
   -2.7028   -1.1807    0.8814 H   0  0  0  0  0  0  0  0  0  0  0  0
   -0.1515   -0.7009    0.0510 C   0  0  0  0  0  0  0  0  0  0  0  0
   -1.4397    0.8199    0.8227 H   0  0  0  0  0  0  0  0  0  0  0  0
   -1.3558    0.8615   -0.9209 H   0  0  0  0  0  0  0  0  0  0  0  0
   -0.0885   -1.4288    1.0109 H   0  0  0  0  0  0  0  0  0  0  0  0
    0.7612   -0.1314   -0.0506 H   0  0  0  0  0  0  0  0  0  0  0  0
   -0.1264   -1.2670   -0.7570 H   0  0  0  0  0  0  0  0  0  0  0  0
  1  5  1  0  0  0  0
  2  1  1  0  0  0  0
  2  8  1  0  0  0  0
  3  1  1  0  0  0  0
  4  1  1  0  0  0  0
  6  2  1  0  0  0  0
  6  9  1  0  0  0  0
  6 10  1  0  0  0  0
  7  2  1  0  0  0  0
  9 12  1  0  0  0  0
 11  6  1  0  0  0  0
 13  9  1  0  0  0  0
 14  9  1  0  0  0  0
M  END
$$$$
