butane_opt
 OpenBabel08242015413D

 14 13  0  0  0  0  0  0  0  0999 V2000
   -3.9324    0.2604    0.0377 C   0  0  0  0  0  0  0  0  0  0  0  0
   -2.7058   -0.6130    0.0045 C   0  0  0  0  0  0  0  0  0  0  0  0
   -4.8594   -0.3166    0.1730 H   0  0  0  0  0  0  0  0  0  0  0  0
   -4.0436    0.9415   -0.8937 H   0  0  0  0  0  0  0  0  0  0  0  0
   -3.8610    0.8192    0.8452 H   0  0  0  0  0  0  0  0  0  0  0  0
   -1.4123    0.1984    0.0058 C   0  0  0  0  0  0  0  0  0  0  0  0
   -2.7405   -1.3255   -0.8846 H   0  0  0  0  0  0  0  0  0  0  0  0
   -2.6473   -1.2174    0.8587 H   0  0  0  0  0  0  0  0  0  0  0  0
   -0.1578   -0.6967    0.0548 C   0  0  0  0  0  0  0  0  0  0  0  0
   -1.4486    0.8404    0.8353 H   0  0  0  0  0  0  0  0  0  0  0  0
   -1.3766    0.8114   -0.9079 H   0  0  0  0  0  0  0  0  0  0  0  0
   -0.1364   -1.3320    0.9531 H   0  0  0  0  0  0  0  0  0  0  0  0
    0.7373   -0.1232    0.0276 H   0  0  0  0  0  0  0  0  0  0  0  0
   -0.1477   -1.3551   -0.8130 H   0  0  0  0  0  0  0  0  0  0  0  0
  1  3  1  0  0  0  0
  1  5  1  0  0  0  0
  2  6  1  0  0  0  0
  2  1  1  0  0  0  0
  2  8  1  0  0  0  0
  4  1  1  0  0  0  0
  6  9  1  0  0  0  0
  6 10  1  0  0  0  0
  7  2  1  0  0  0  0
  9 12  1  0  0  0  0
 11  6  1  0  0  0  0
 13  9  1  0  0  0  0
 14  9  1  0  0  0  0
M  END
$$$$
