14
butane_opt
C  -3.930443   0.257033   0.041428
C  -2.703286  -0.613918   0.010571
H  -4.859788  -0.327441   0.196309
H  -4.040663   0.925174  -0.880342
H  -3.878861   0.873110   0.858106
C  -1.417614   0.197307  -0.008805
H  -2.695017  -1.364354  -0.918951
H  -2.692468  -1.186248   0.860036
C  -0.159534  -0.697530   0.053625
H  -1.429502   0.854270   0.827088
H  -1.372022   0.866909  -0.930969
H  -0.159770  -1.357391   0.971211
H   0.754904  -0.084235   0.098901
H  -0.117703  -1.388525  -0.801163
