butane_opt
 OpenBabel08242015413D

 14 13  0  0  0  0  0  0  0  0999 V2000
   -3.9456    0.2729   -0.0187 C   0  0  0  0  0  0  0  0  0  0  0  0
   -2.6952   -0.6226    0.0801 C   0  0  0  0  0  0  0  0  0  0  0  0
   -4.8393   -0.3082   -0.0030 H   0  0  0  0  0  0  0  0  0  0  0  0
   -3.9728    0.8904   -0.9214 H   0  0  0  0  0  0  0  0  0  0  0  0
   -3.9881    0.9734    0.8557 H   0  0  0  0  0  0  0  0  0  0  0  0
   -1.4011    0.1737    0.0369 C   0  0  0  0  0  0  0  0  0  0  0  0
   -2.6452   -1.2526   -0.7431 H   0  0  0  0  0  0  0  0  0  0  0  0
   -2.7824   -1.3305    1.0161 H   0  0  0  0  0  0  0  0  0  0  0  0
   -0.1588   -0.6916    0.0029 C   0  0  0  0  0  0  0  0  0  0  0  0
   -1.3434    0.8840    0.9323 H   0  0  0  0  0  0  0  0  0  0  0  0
   -1.3911    0.7733   -0.8561 H   0  0  0  0  0  0  0  0  0  0  0  0
   -0.2205   -1.2105    0.8257 H   0  0  0  0  0  0  0  0  0  0  0  0
    0.7792   -0.0683   -0.0006 H   0  0  0  0  0  0  0  0  0  0  0  0
   -0.2053   -1.4064   -0.8839 H   0  0  0  0  0  0  0  0  0  0  0  0
  1  3  1  0  0  0  0
  1  2  1  0  0  0  0
  1  5  1  0  0  0  0
  2  8  1  0  0  0  0
  4  1  1  0  0  0  0
  6  2  1  0  0  0  0
  6 10  1  0  0  0  0
  7  2  1  0  0  0  0
  9  6  1  0  0  0  0
  9 12  1  0  0  0  0
 11  6  1  0  0  0  0
 13  9  1  0  0  0  0
 14  9  1  0  0  0  0
M  END
$$$$
