butane_opt
 OpenBabel08242015413D

 14 13  0  0  0  0  0  0  0  0999 V2000
   -3.9600    0.2737    0.0023 C   0  0  0  0  0  0  0  0  0  0  0  0
   -2.6927   -0.6371    0.0473 C   0  0  0  0  0  0  0  0  0  0  0  0
   -4.8762   -0.3139    0.1181 H   0  0  0  0  0  0  0  0  0  0  0  0
   -4.0310    0.9224   -0.8992 H   0  0  0  0  0  0  0  0  0  0  0  0
   -3.9484    0.9613    0.8519 H   0  0  0  0  0  0  0  0  0  0  0  0
   -1.4017    0.1775    0.0186 C   0  0  0  0  0  0  0  0  0  0  0  0
   -2.7156   -1.2694   -0.7798 H   0  0  0  0  0  0  0  0  0  0  0  0
   -2.7198   -1.2965    0.9369 H   0  0  0  0  0  0  0  0  0  0  0  0
   -0.1591   -0.6805    0.0236 C   0  0  0  0  0  0  0  0  0  0  0  0
   -1.3428    0.8644    0.8825 H   0  0  0  0  0  0  0  0  0  0  0  0
   -1.3768    0.8208   -0.8840 H   0  0  0  0  0  0  0  0  0  0  0  0
   -0.1229   -1.2502    0.8938 H   0  0  0  0  0  0  0  0  0  0  0  0
    0.7540   -0.0987    0.0955 H   0  0  0  0  0  0  0  0  0  0  0  0
   -0.0911   -1.4151   -0.8797 H   0  0  0  0  0  0  0  0  0  0  0  0
  1  2  1  0  0  0  0
  1  3  1  0  0  0  0
  1  5  1  0  0  0  0
  2  8  1  0  0  0  0
  4  1  1  0  0  0  0
  6  9  1  0  0  0  0
  6  2  1  0  0  0  0
  6 10  1  0  0  0  0
  7  2  1  0  0  0  0
  9 13  1  0  0  0  0
  9 12  1  0  0  0  0
 11  6  1  0  0  0  0
 14  9  1  0  0  0  0
M  END
$$$$
