butane_opt
 OpenBabel08242015413D

 14 13  0  0  0  0  0  0  0  0999 V2000
   -3.9400    0.2643    0.0446 C   0  0  0  0  0  0  0  0  0  0  0  0
   -2.6955   -0.6181    0.0174 C   0  0  0  0  0  0  0  0  0  0  0  0
   -4.8316   -0.3209   -0.0074 H   0  0  0  0  0  0  0  0  0  0  0  0
   -3.9400    0.7810   -0.8228 H   0  0  0  0  0  0  0  0  0  0  0  0
   -3.9886    1.0000    0.9501 H   0  0  0  0  0  0  0  0  0  0  0  0
   -1.4064    0.1976   -0.0176 C   0  0  0  0  0  0  0  0  0  0  0  0
   -2.7747   -1.3172   -0.8503 H   0  0  0  0  0  0  0  0  0  0  0  0
   -2.7334   -1.2167    0.8728 H   0  0  0  0  0  0  0  0  0  0  0  0
   -0.1640   -0.6994    0.0531 C   0  0  0  0  0  0  0  0  0  0  0  0
   -1.3673    0.8183    0.8150 H   0  0  0  0  0  0  0  0  0  0  0  0
   -1.4388    0.8621   -0.9228 H   0  0  0  0  0  0  0  0  0  0  0  0
   -0.1600   -1.3991    1.0047 H   0  0  0  0  0  0  0  0  0  0  0  0
    0.7752   -0.0841    0.0305 H   0  0  0  0  0  0  0  0  0  0  0  0
   -0.1011   -1.3195   -0.7772 H   0  0  0  0  0  0  0  0  0  0  0  0
  1  5  1  0  0  0  0
  2  1  1  0  0  0  0
  2  8  1  0  0  0  0
  3  1  1  0  0  0  0
  4  1  1  0  0  0  0
  6  2  1  0  0  0  0
  6  9  1  0  0  0  0
  6 10  1  0  0  0  0
  7  2  1  0  0  0  0
  9 12  1  0  0  0  0
 11  6  1  0  0  0  0
 13  9  1  0  0  0  0
 14  9  1  0  0  0  0
M  END
$$$$
