14
butane_opt
C  -3.949712   0.260301   0.047902
C  -2.705480  -0.615798   0.023853
H  -4.872298  -0.324096  -0.099002
H  -3.953362   0.733468  -0.783414
H  -3.996340   1.037126   0.978491
C  -1.399914   0.195618  -0.036609
H  -2.719016  -1.277044  -0.820018
H  -2.711231  -1.257873   0.924309
C  -0.149740  -0.690698   0.060136
H  -1.430914   0.874578   0.796089
H  -1.375588   0.815456  -0.921666
H  -0.111885  -1.356567   0.986520
H   0.708320  -0.171684   0.026008
H  -0.098418  -1.347081  -0.776601
