butane_opt
 OpenBabel08242015413D

 14 13  0  0  0  0  0  0  0  0999 V2000
   -3.9442    0.2737    0.0080 C   0  0  0  0  0  0  0  0  0  0  0  0
   -2.6961   -0.6197    0.0477 C   0  0  0  0  0  0  0  0  0  0  0  0
   -4.8726   -0.3621    0.1811 H   0  0  0  0  0  0  0  0  0  0  0  0
   -3.9892    0.9775   -0.9555 H   0  0  0  0  0  0  0  0  0  0  0  0
   -3.9487    0.8131    0.7882 H   0  0  0  0  0  0  0  0  0  0  0  0
   -1.4040    0.1799    0.0214 C   0  0  0  0  0  0  0  0  0  0  0  0
   -2.6870   -1.3229   -0.8099 H   0  0  0  0  0  0  0  0  0  0  0  0
   -2.6864   -1.1821    0.8923 H   0  0  0  0  0  0  0  0  0  0  0  0
   -0.1675   -0.6963    0.0229 C   0  0  0  0  0  0  0  0  0  0  0  0
   -1.3349    0.8884    0.8827 H   0  0  0  0  0  0  0  0  0  0  0  0
   -1.3776    0.7978   -0.8547 H   0  0  0  0  0  0  0  0  0  0  0  0
   -0.1816   -1.2384    0.8782 H   0  0  0  0  0  0  0  0  0  0  0  0
    0.7543   -0.0803    0.0638 H   0  0  0  0  0  0  0  0  0  0  0  0
   -0.1518   -1.4171   -0.8394 H   0  0  0  0  0  0  0  0  0  0  0  0
  1  2  1  0  0  0  0
  1  3  1  0  0  0  0
  1  5  1  0  0  0  0
  2  8  1  0  0  0  0
  4  1  1  0  0  0  0
  6  9  1  0  0  0  0
  6  2  1  0  0  0  0
  6 10  1  0  0  0  0
  7  2  1  0  0  0  0
  9 13  1  0  0  0  0
  9 12  1  0  0  0  0
 11  6  1  0  0  0  0
 14  9  1  0  0  0  0
M  END
$$$$
