14
butane_opt
C  -3.955737   0.276819  -0.004259
C  -2.700339  -0.623805   0.056031
H  -4.848673  -0.322960   0.010879
H  -3.994183   0.907144  -0.918910
H  -3.975982   0.899514   0.812232
C  -1.396187   0.167682   0.047266
H  -2.663346  -1.301005  -0.797920
H  -2.730126  -1.269954   0.967287
C  -0.155483  -0.678535   0.000590
H  -1.374476   0.930968   0.952368
H  -1.404661   0.740890  -0.826961
H  -0.104002  -1.373237   0.967083
H   0.738861  -0.100075  -0.101790
H  -0.180260  -1.284929  -0.818636
