butane_opt
 OpenBabel08242015413D

 14 13  0  0  0  0  0  0  0  0999 V2000
   -3.9433    0.2830    0.0391 C   0  0  0  0  0  0  0  0  0  0  0  0
   -2.7010   -0.6261    0.0327 C   0  0  0  0  0  0  0  0  0  0  0  0
   -4.8752   -0.3255    0.0573 H   0  0  0  0  0  0  0  0  0  0  0  0
   -3.9956    0.8488   -0.8243 H   0  0  0  0  0  0  0  0  0  0  0  0
   -3.9574    0.9374    0.9245 H   0  0  0  0  0  0  0  0  0  0  0  0
   -1.3944    0.1622   -0.0325 C   0  0  0  0  0  0  0  0  0  0  0  0
   -2.7053   -1.3297   -0.8373 H   0  0  0  0  0  0  0  0  0  0  0  0
   -2.6841   -1.2042    0.8834 H   0  0  0  0  0  0  0  0  0  0  0  0
   -0.1704   -0.6826    0.0519 C   0  0  0  0  0  0  0  0  0  0  0  0
   -1.3968    0.8258    0.8080 H   0  0  0  0  0  0  0  0  0  0  0  0
   -1.3640    0.8540   -0.9489 H   0  0  0  0  0  0  0  0  0  0  0  0
   -0.2208   -1.2463    0.9125 H   0  0  0  0  0  0  0  0  0  0  0  0
    0.7569   -0.0892    0.1951 H   0  0  0  0  0  0  0  0  0  0  0  0
   -0.0766   -1.3854   -0.8246 H   0  0  0  0  0  0  0  0  0  0  0  0
  1  3  1  0  0  0  0
  1  5  1  0  0  0  0
  2  1  1  0  0  0  0
  2  8  1  0  0  0  0
  4  1  1  0  0  0  0
  6  2  1  0  0  0  0
  6  9  1  0  0  0  0
  6 10  1  0  0  0  0
  7  2  1  0  0  0  0
  9 13  1  0  0  0  0
  9 12  1  0  0  0  0
 11  6  1  0  0  0  0
 14  9  1  0  0  0  0
M  END
$$$$
