14
butane_opt
C  -3.948499   0.259066   0.034566
C  -2.708307  -0.597863   0.004055
H  -4.878233  -0.366059   0.130737
H  -4.080744   0.870187  -0.855591
H  -3.880164   0.859246   0.892146
C  -1.398146   0.196231  -0.004854
H  -2.719245  -1.300814  -0.870067
H  -2.738372  -1.210490   0.899341
C  -0.151418  -0.705872   0.054137
H  -1.394417   0.883172   0.881395
H  -1.340583   0.818675  -0.889029
H  -0.106717  -1.380060   0.982454
H   0.729617  -0.139578  -0.019313
H  -0.127294  -1.328049  -0.769403
