butane_opt
 OpenBabel08242015413D

 14 13  0  0  0  0  0  0  0  0999 V2000
   -3.9622    0.2830    0.0155 C   0  0  0  0  0  0  0  0  0  0  0  0
   -2.7040   -0.6359    0.0307 C   0  0  0  0  0  0  0  0  0  0  0  0
   -4.8376   -0.3078    0.0411 H   0  0  0  0  0  0  0  0  0  0  0  0
   -3.9865    0.8439   -0.8437 H   0  0  0  0  0  0  0  0  0  0  0  0
   -3.9730    0.9719    0.8838 H   0  0  0  0  0  0  0  0  0  0  0  0
   -1.3948    0.1738    0.0200 C   0  0  0  0  0  0  0  0  0  0  0  0
   -2.7073   -1.3310   -0.8059 H   0  0  0  0  0  0  0  0  0  0  0  0
   -2.7428   -1.2100    0.8890 H   0  0  0  0  0  0  0  0  0  0  0  0
   -0.1529   -0.6893    0.0416 C   0  0  0  0  0  0  0  0  0  0  0  0
   -1.3429    0.8202    0.8483 H   0  0  0  0  0  0  0  0  0  0  0  0
   -1.4063    0.8463   -0.9057 H   0  0  0  0  0  0  0  0  0  0  0  0
   -0.0812   -1.3295    0.9302 H   0  0  0  0  0  0  0  0  0  0  0  0
    0.7919   -0.0649   -0.0784 H   0  0  0  0  0  0  0  0  0  0  0  0
   -0.1841   -1.2788   -0.7964 H   0  0  0  0  0  0  0  0  0  0  0  0
  1  2  1  0  0  0  0
  1  3  1  0  0  0  0
  1  5  1  0  0  0  0
  2  8  1  0  0  0  0
  4  1  1  0  0  0  0
  6  2  1  0  0  0  0
  6  9  1  0  0  0  0
  6 10  1  0  0  0  0
  7  2  1  0  0  0  0
  9 12  1  0  0  0  0
 11  6  1  0  0  0  0
 13  9  1  0  0  0  0
 14  9  1  0  0  0  0
M  END
$$$$
