14
butane_opt
C  -3.959986   0.274762  -0.018125
C  -2.701278  -0.623425   0.070550
H  -4.827238  -0.281254   0.007799
H  -3.964740   0.928645  -0.979710
H  -4.026927   0.910989   0.824204
C  -1.397379   0.166463   0.057918
H  -2.701232  -1.277692  -0.777752
H  -2.728439  -1.272919   0.951757
C  -0.152769  -0.687319  -0.001920
H  -1.288344   0.906870   0.953239
H  -1.422244   0.717029  -0.761786
H  -0.102013  -1.313961   0.901191
H   0.786863  -0.070939  -0.165862
H  -0.214670  -1.269563  -0.813494
