14
butane_opt
C  -3.958771   0.283031  -0.000990
C  -2.699711  -0.636162   0.045470
H  -4.853554  -0.314961   0.037201
H  -3.984411   0.861343  -0.882705
H  -4.004825   0.945219   0.859175
C  -1.395105   0.169969   0.036086
H  -2.656866  -1.277121  -0.763461
H  -2.734143  -1.264118   0.951022
C  -0.153267  -0.682606   0.015851
H  -1.361056   0.858805   0.908973
H  -1.438736   0.794254  -0.867439
H  -0.107010  -1.298926   0.930380
H   0.779639  -0.072902  -0.056852
H  -0.189605  -1.307300  -0.823199
