14
butane_opt
C  -3.927269   0.258673   0.052829
C  -2.694347  -0.607537   0.002657
H  -4.867212  -0.361113   0.117325
H  -3.998585   0.826558  -0.825628
H  -3.898861   0.908040   0.908367
C  -1.421645   0.189717  -0.027983
H  -2.787345  -1.275243  -0.866807
H  -2.673141  -1.188176   0.873879
C  -0.161116  -0.696926   0.061247
H  -1.416001   0.856749   0.800853
H  -1.414831   0.854031  -0.963607
H  -0.235007  -1.315694   0.957592
H   0.732205  -0.136280   0.139801
H  -0.009463  -1.376374  -0.767346
