14
butane_opt
C  -3.931011   0.263873  -0.008113
C  -2.704314  -0.609591   0.077922
H  -4.845298  -0.358446  -0.015865
H  -3.888987   0.852568  -0.899494
H  -3.966029   0.944382   0.832831
C  -1.414370   0.191024   0.023615
H  -2.729084  -1.234643  -0.748542
H  -2.724304  -1.249937   0.991545
C  -0.167911  -0.704109   0.002066
H  -1.364836   0.887022   0.893404
H  -1.427029   0.769211  -0.835147
H  -0.158222  -1.294223   0.873569
H   0.813223  -0.058642   0.086022
H  -0.128864  -1.420061  -0.884231
