14
butane_opt
C  -3.953067   0.279769   0.030379
C  -2.694174  -0.640473   0.028862
H  -4.827244  -0.288120  -0.066451
H  -3.980389   0.748249  -0.797031
H  -4.000695   1.037569   0.971273
C  -1.405009   0.181048  -0.014225
H  -2.724568  -1.291667  -0.805397
H  -2.739510  -1.283791   0.965438
C  -0.156171  -0.683562   0.043820
H  -1.365642   0.834558   0.833011
H  -1.418871   0.865871  -0.938795
H  -0.130018  -1.312740   0.958067
H   0.764701  -0.077813   0.055606
H  -0.112681  -1.340120  -0.784723
