butane_opt
 OpenBabel08242015413D

 14 13  0  0  0  0  0  0  0  0999 V2000
   -3.9537    0.2792   -0.0092 C   0  0  0  0  0  0  0  0  0  0  0  0
   -2.7016   -0.6329    0.0703 C   0  0  0  0  0  0  0  0  0  0  0  0
   -4.8579   -0.3114    0.1079 H   0  0  0  0  0  0  0  0  0  0  0  0
   -3.9768    0.9186   -0.9481 H   0  0  0  0  0  0  0  0  0  0  0  0
   -3.9787    0.8963    0.8044 H   0  0  0  0  0  0  0  0  0  0  0  0
   -1.4001    0.1774    0.0207 C   0  0  0  0  0  0  0  0  0  0  0  0
   -2.7499   -1.2471   -0.7229 H   0  0  0  0  0  0  0  0  0  0  0  0
   -2.7345   -1.2788    0.9817 H   0  0  0  0  0  0  0  0  0  0  0  0
   -0.1538   -0.6900    0.0089 C   0  0  0  0  0  0  0  0  0  0  0  0
   -1.3396    0.9007    0.8941 H   0  0  0  0  0  0  0  0  0  0  0  0
   -1.4350    0.7722   -0.8342 H   0  0  0  0  0  0  0  0  0  0  0  0
   -0.1919   -1.1835    0.8319 H   0  0  0  0  0  0  0  0  0  0  0  0
    0.8175   -0.0645    0.1498 H   0  0  0  0  0  0  0  0  0  0  0  0
   -0.0781   -1.4735   -0.9260 H   0  0  0  0  0  0  0  0  0  0  0  0
  1  2  1  0  0  0  0
  1  3  1  0  0  0  0
  1  5  1  0  0  0  0
  2  8  1  0  0  0  0
  4  1  1  0  0  0  0
  6  2  1  0  0  0  0
  6 10  1  0  0  0  0
  7  2  1  0  0  0  0
  9  6  1  0  0  0  0
  9 13  1  0  0  0  0
  9 12  1  0  0  0  0
 11  6  1  0  0  0  0
 14  9  1  0  0  0  0
M  END
$$$$
