butane_opt
 OpenBabel08242015413D

 14 13  0  0  0  0  0  0  0  0999 V2000
   -3.9395    0.2558    0.0280 C   0  0  0  0  0  0  0  0  0  0  0  0
   -2.6988   -0.6121    0.0435 C   0  0  0  0  0  0  0  0  0  0  0  0
   -4.8691   -0.3495   -0.1202 H   0  0  0  0  0  0  0  0  0  0  0  0
   -3.8910    0.7483   -0.8059 H   0  0  0  0  0  0  0  0  0  0  0  0
   -3.9789    1.0517    0.9581 H   0  0  0  0  0  0  0  0  0  0  0  0
   -1.4159    0.1968   -0.0103 C   0  0  0  0  0  0  0  0  0  0  0  0
   -2.7331   -1.2638   -0.8035 H   0  0  0  0  0  0  0  0  0  0  0  0
   -2.7418   -1.2225    0.9316 H   0  0  0  0  0  0  0  0  0  0  0  0
   -0.1530   -0.7038    0.0494 C   0  0  0  0  0  0  0  0  0  0  0  0
   -1.4387    0.8433    0.8330 H   0  0  0  0  0  0  0  0  0  0  0  0
   -1.3983    0.8735   -0.9452 H   0  0  0  0  0  0  0  0  0  0  0  0
   -0.1028   -1.3282    0.9481 H   0  0  0  0  0  0  0  0  0  0  0  0
    0.7695   -0.1090   -0.0433 H   0  0  0  0  0  0  0  0  0  0  0  0
   -0.1545   -1.3627   -0.8289 H   0  0  0  0  0  0  0  0  0  0  0  0
  1  2  1  0  0  0  0
  1  5  1  0  0  0  0
  2  8  1  0  0  0  0
  3  1  1  0  0  0  0
  4  1  1  0  0  0  0
  6  2  1  0  0  0  0
  6  9  1  0  0  0  0
  6 10  1  0  0  0  0
  7  2  1  0  0  0  0
  9 12  1  0  0  0  0
 11  6  1  0  0  0  0
 13  9  1  0  0  0  0
 14  9  1  0  0  0  0
M  END
$$$$
