14
butane_opt
C  -3.964454   0.282194   0.002764
C  -2.691169  -0.627233   0.049806
H  -4.865239  -0.321718   0.124132
H  -4.004260   0.918252  -0.892649
H  -3.971037   0.881257   0.826860
C  -1.389538   0.173379   0.013993
H  -2.697991  -1.296587  -0.767699
H  -2.742757  -1.283885   0.966628
C  -0.156781  -0.684741   0.023196
H  -1.367924   0.874147   0.889746
H  -1.360664   0.776819  -0.867827
H  -0.204525  -1.229048   0.877932
H   0.752779  -0.071294   0.094753
H  -0.142348  -1.440660  -0.900536
