butane_opt
 OpenBabel08242015413D

 14 13  0  0  0  0  0  0  0  0999 V2000
   -3.9467    0.2596    0.0384 C   0  0  0  0  0  0  0  0  0  0  0  0
   -2.6940   -0.6106    0.0055 C   0  0  0  0  0  0  0  0  0  0  0  0
   -4.8176   -0.3047    0.0508 H   0  0  0  0  0  0  0  0  0  0  0  0
   -3.9714    0.8276   -0.8225 H   0  0  0  0  0  0  0  0  0  0  0  0
   -3.9658    1.0123    0.9771 H   0  0  0  0  0  0  0  0  0  0  0  0
   -1.4062    0.1746   -0.0020 C   0  0  0  0  0  0  0  0  0  0  0  0
   -2.6791   -1.3618   -0.8713 H   0  0  0  0  0  0  0  0  0  0  0  0
   -2.7158   -1.1655    0.8288 H   0  0  0  0  0  0  0  0  0  0  0  0
   -0.1613   -0.6925    0.0614 C   0  0  0  0  0  0  0  0  0  0  0  0
   -1.4034    0.8238    0.8120 H   0  0  0  0  0  0  0  0  0  0  0  0
   -1.3936    0.8314   -0.9279 H   0  0  0  0  0  0  0  0  0  0  0  0
   -0.1103   -1.4138    1.0188 H   0  0  0  0  0  0  0  0  0  0  0  0
    0.7592   -0.0751   -0.1401 H   0  0  0  0  0  0  0  0  0  0  0  0
   -0.2254   -1.2078   -0.6966 H   0  0  0  0  0  0  0  0  0  0  0  0
  1  3  1  0  0  0  0
  1  5  1  0  0  0  0
  2  1  1  0  0  0  0
  2  8  1  0  0  0  0
  4  1  1  0  0  0  0
  6  2  1  0  0  0  0
  6  9  1  0  0  0  0
  6 10  1  0  0  0  0
  7  2  1  0  0  0  0
  9 12  1  0  0  0  0
 11  6  1  0  0  0  0
 13  9  1  0  0  0  0
 14  9  1  0  0  0  0
M  END
$$$$
