butane_opt
 OpenBabel08242015413D

 14 13  0  0  0  0  0  0  0  0999 V2000
   -3.9424    0.2628    0.0285 C   0  0  0  0  0  0  0  0  0  0  0  0
   -2.6913   -0.6179    0.0226 C   0  0  0  0  0  0  0  0  0  0  0  0
   -4.8672   -0.3428    0.0221 H   0  0  0  0  0  0  0  0  0  0  0  0
   -3.8930    0.8932   -0.8681 H   0  0  0  0  0  0  0  0  0  0  0  0
   -3.9606    0.9304    0.8900 H   0  0  0  0  0  0  0  0  0  0  0  0
   -1.4015    0.1923    0.0141 C   0  0  0  0  0  0  0  0  0  0  0  0
   -2.7233   -1.3142   -0.8546 H   0  0  0  0  0  0  0  0  0  0  0  0
   -2.7283   -1.1726    0.8717 H   0  0  0  0  0  0  0  0  0  0  0  0
   -0.1749   -0.7007    0.0398 C   0  0  0  0  0  0  0  0  0  0  0  0
   -1.3909    0.8721    0.8925 H   0  0  0  0  0  0  0  0  0  0  0  0
   -1.3784    0.8164   -0.8770 H   0  0  0  0  0  0  0  0  0  0  0  0
   -0.0714   -1.4251    1.0061 H   0  0  0  0  0  0  0  0  0  0  0  0
    0.7437   -0.1114   -0.1206 H   0  0  0  0  0  0  0  0  0  0  0  0
   -0.2337   -1.2558   -0.7672 H   0  0  0  0  0  0  0  0  0  0  0  0
  1  5  1  0  0  0  0
  2  1  1  0  0  0  0
  2  8  1  0  0  0  0
  3  1  1  0  0  0  0
  4  1  1  0  0  0  0
  6  2  1  0  0  0  0
  6  9  1  0  0  0  0
  6 10  1  0  0  0  0
  7  2  1  0  0  0  0
  9 12  1  0  0  0  0
 11  6  1  0  0  0  0
 13  9  1  0  0  0  0
 14  9  1  0  0  0  0
M  END
$$$$
