butane_opt
 OpenBabel08242015413D

 14 13  0  0  0  0  0  0  0  0999 V2000
   -3.9405    0.2759   -0.0129 C   0  0  0  0  0  0  0  0  0  0  0  0
   -2.6984   -0.6256    0.0907 C   0  0  0  0  0  0  0  0  0  0  0  0
   -4.8279   -0.3012   -0.1399 H   0  0  0  0  0  0  0  0  0  0  0  0
   -3.9112    0.8547   -0.9179 H   0  0  0  0  0  0  0  0  0  0  0  0
   -4.0381    0.9917    0.8767 H   0  0  0  0  0  0  0  0  0  0  0  0
   -1.3983    0.1670    0.0351 C   0  0  0  0  0  0  0  0  0  0  0  0
   -2.6698   -1.3157   -0.7610 H   0  0  0  0  0  0  0  0  0  0  0  0
   -2.7079   -1.2758    0.9936 H   0  0  0  0  0  0  0  0  0  0  0  0
   -0.1773   -0.6816    0.0015 C   0  0  0  0  0  0  0  0  0  0  0  0
   -1.2904    0.8550    0.8971 H   0  0  0  0  0  0  0  0  0  0  0  0
   -1.4232    0.8183   -0.8426 H   0  0  0  0  0  0  0  0  0  0  0  0
   -0.1187   -1.2651    0.8660 H   0  0  0  0  0  0  0  0  0  0  0  0
    0.7271   -0.0975   -0.0326 H   0  0  0  0  0  0  0  0  0  0  0  0
   -0.1899   -1.3635   -0.8709 H   0  0  0  0  0  0  0  0  0  0  0  0
  1  2  1  0  0  0  0
  1  5  1  0  0  0  0
  2  8  1  0  0  0  0
  3  1  1  0  0  0  0
  4  1  1  0  0  0  0
  6  2  1  0  0  0  0
  6 10  1  0  0  0  0
  7  2  1  0  0  0  0
  9  6  1  0  0  0  0
  9 12  1  0  0  0  0
 11  6  1  0  0  0  0
 13  9  1  0  0  0  0
 14  9  1  0  0  0  0
M  END
$$$$
