butane_opt
 OpenBabel08242015413D

 14 13  0  0  0  0  0  0  0  0999 V2000
   -3.9297    0.2564    0.0491 C   0  0  0  0  0  0  0  0  0  0  0  0
   -2.7050   -0.6072   -0.0061 C   0  0  0  0  0  0  0  0  0  0  0  0
   -4.8697   -0.3815    0.1809 H   0  0  0  0  0  0  0  0  0  0  0  0
   -3.9787    0.9074   -0.8967 H   0  0  0  0  0  0  0  0  0  0  0  0
   -3.8503    0.9097    0.9045 H   0  0  0  0  0  0  0  0  0  0  0  0
   -1.4065    0.2026   -0.0077 C   0  0  0  0  0  0  0  0  0  0  0  0
   -2.7811   -1.3560   -0.9051 H   0  0  0  0  0  0  0  0  0  0  0  0
   -2.6809   -1.1773    0.8570 H   0  0  0  0  0  0  0  0  0  0  0  0
   -0.1692   -0.7068    0.0583 C   0  0  0  0  0  0  0  0  0  0  0  0
   -1.4163    0.8486    0.8290 H   0  0  0  0  0  0  0  0  0  0  0  0
   -1.4135    0.8771   -0.9451 H   0  0  0  0  0  0  0  0  0  0  0  0
   -0.1654   -1.3701    1.0116 H   0  0  0  0  0  0  0  0  0  0  0  0
    0.7200   -0.1387    0.0465 H   0  0  0  0  0  0  0  0  0  0  0  0
   -0.0626   -1.3313   -0.7645 H   0  0  0  0  0  0  0  0  0  0  0  0
  1  3  1  0  0  0  0
  1  5  1  0  0  0  0
  2  1  1  0  0  0  0
  2  8  1  0  0  0  0
  4  1  1  0  0  0  0
  6  2  1  0  0  0  0
  6  9  1  0  0  0  0
  6 10  1  0  0  0  0
  7  2  1  0  0  0  0
  9 12  1  0  0  0  0
 11  6  1  0  0  0  0
 13  9  1  0  0  0  0
 14  9  1  0  0  0  0
M  END
$$$$
