14
butane_opt
C  -3.954280   0.271201   0.018572
C  -2.699447  -0.622713   0.040065
H  -4.878766  -0.317010   0.082911
H  -3.995746   0.938135  -0.919754
H  -3.973935   0.886136   0.858897
C  -1.396954   0.178725   0.007880
H  -2.792887  -1.281287  -0.829745
H  -2.704018  -1.272886   0.943092
C  -0.157415  -0.689960   0.033012
H  -1.359092   0.881491   0.883832
H  -1.380220   0.804125  -0.889783
H  -0.153066  -1.247729   0.881338
H   0.745115  -0.100904   0.075405
H  -0.039129  -1.407886  -0.857019
