butane_opt
 OpenBabel08242015413D

 14 13  0  0  0  0  0  0  0  0999 V2000
   -3.9537    0.2754    0.0086 C   0  0  0  0  0  0  0  0  0  0  0  0
   -2.7066   -0.6243    0.0339 C   0  0  0  0  0  0  0  0  0  0  0  0
   -4.8059   -0.2879    0.1641 H   0  0  0  0  0  0  0  0  0  0  0  0
   -4.0118    0.9299   -0.9045 H   0  0  0  0  0  0  0  0  0  0  0  0
   -3.9313    0.9021    0.8177 H   0  0  0  0  0  0  0  0  0  0  0  0
   -1.3984    0.1676    0.0167 C   0  0  0  0  0  0  0  0  0  0  0  0
   -2.7070   -1.2736   -0.7835 H   0  0  0  0  0  0  0  0  0  0  0  0
   -2.7113   -1.2633    0.9429 H   0  0  0  0  0  0  0  0  0  0  0  0
   -0.1570   -0.6831    0.0283 C   0  0  0  0  0  0  0  0  0  0  0  0
   -1.4046    0.8704    0.9033 H   0  0  0  0  0  0  0  0  0  0  0  0
   -1.3550    0.7451   -0.8527 H   0  0  0  0  0  0  0  0  0  0  0  0
   -0.1587   -1.2669    0.9028 H   0  0  0  0  0  0  0  0  0  0  0  0
    0.7915   -0.0670    0.0380 H   0  0  0  0  0  0  0  0  0  0  0  0
   -0.1561   -1.3738   -0.8454 H   0  0  0  0  0  0  0  0  0  0  0  0
  1  2  1  0  0  0  0
  1  3  1  0  0  0  0
  1  5  1  0  0  0  0
  2  8  1  0  0  0  0
  4  1  1  0  0  0  0
  6  9  1  0  0  0  0
  6  2  1  0  0  0  0
  6 10  1  0  0  0  0
  7  2  1  0  0  0  0
  9 13  1  0  0  0  0
  9 12  1  0  0  0  0
 11  6  1  0  0  0  0
 14  9  1  0  0  0  0
M  END
$$$$
