14
butane_opt
C  -3.936259   0.253869   0.028153
C  -2.697151  -0.609415   0.017286
H  -4.878092  -0.343858  -0.007800
H  -3.937880   0.886664  -0.860174
H  -3.929252   0.960115   0.915684
C  -1.407817   0.197771   0.019242
H  -2.738257  -1.326214  -0.830802
H  -2.736485  -1.180434   0.878365
C  -0.164361  -0.701169   0.037934
H  -1.357819   0.850142   0.864882
H  -1.415335   0.822561  -0.876828
H  -0.094771  -1.450253   1.008240
H   0.710450  -0.130682  -0.134565
H  -0.174649  -1.253533  -0.736470
