14
butane_opt
C  -3.940425   0.253536   0.029264
C  -2.704770  -0.598767   0.037453
H  -4.874396  -0.354873  -0.135427
H  -3.872922   0.749464  -0.798010
H  -3.938964   1.058647   0.951477
C  -1.411503   0.181802  -0.007786
H  -2.699978  -1.234230  -0.772922
H  -2.687584  -1.232784   0.936473
C  -0.164165  -0.697847   0.037994
H  -1.362361   0.855911   0.828470
H  -1.422950   0.828406  -0.892303
H  -0.137873  -1.379780   0.974960
H   0.737617  -0.122230  -0.012194
H  -0.114020  -1.315471  -0.787101
