14
butane_opt
C  -3.950431   0.278028   0.002303
C  -2.705600  -0.619861   0.053383
H  -4.874293  -0.351081   0.054732
H  -4.031132   0.935209  -0.911255
H  -3.931123   0.891295   0.841298
C  -1.390322   0.172435   0.016192
H  -2.678726  -1.277920  -0.764684
H  -2.763592  -1.303562   0.999620
C  -0.157600  -0.685764   0.021444
H  -1.375560   0.880814   0.918607
H  -1.386768   0.779615  -0.871222
H  -0.148281  -1.222842   0.844684
H   0.733121  -0.098025   0.076846
H  -0.122198  -1.440730  -0.885554
