butane_opt
 OpenBabel08242015413D

 14 13  0  0  0  0  0  0  0  0999 V2000
   -3.9399    0.2713    0.0336 C   0  0  0  0  0  0  0  0  0  0  0  0
   -2.7018   -0.6212    0.0341 C   0  0  0  0  0  0  0  0  0  0  0  0
   -4.8364   -0.2708   -0.1164 H   0  0  0  0  0  0  0  0  0  0  0  0
   -3.8927    0.7719   -0.8030 H   0  0  0  0  0  0  0  0  0  0  0  0
   -4.0239    1.0541    0.9631 H   0  0  0  0  0  0  0  0  0  0  0  0
   -1.3959    0.1753   -0.0122 C   0  0  0  0  0  0  0  0  0  0  0  0
   -2.7345   -1.2968   -0.8118 H   0  0  0  0  0  0  0  0  0  0  0  0
   -2.6783   -1.2816    0.9582 H   0  0  0  0  0  0  0  0  0  0  0  0
   -0.1700   -0.6867    0.0401 C   0  0  0  0  0  0  0  0  0  0  0  0
   -1.4091    0.8347    0.8333 H   0  0  0  0  0  0  0  0  0  0  0  0
   -1.3751    0.7747   -0.9061 H   0  0  0  0  0  0  0  0  0  0  0  0
   -0.1619   -1.3617    0.9659 H   0  0  0  0  0  0  0  0  0  0  0  0
    0.7418   -0.0896    0.0094 H   0  0  0  0  0  0  0  0  0  0  0  0
   -0.1679   -1.2644   -0.7827 H   0  0  0  0  0  0  0  0  0  0  0  0
  1  2  1  0  0  0  0
  1  5  1  0  0  0  0
  2  8  1  0  0  0  0
  3  1  1  0  0  0  0
  4  1  1  0  0  0  0
  6  2  1  0  0  0  0
  6  9  1  0  0  0  0
  6 10  1  0  0  0  0
  7  2  1  0  0  0  0
  9 12  1  0  0  0  0
 11  6  1  0  0  0  0
 13  9  1  0  0  0  0
 14  9  1  0  0  0  0
M  END
$$$$
