butane_opt
 OpenBabel08242015413D

 14 13  0  0  0  0  0  0  0  0999 V2000
   -3.9487    0.2682   -0.0099 C   0  0  0  0  0  0  0  0  0  0  0  0
   -2.7037   -0.6252    0.0745 C   0  0  0  0  0  0  0  0  0  0  0  0
   -4.8182   -0.2962   -0.0011 H   0  0  0  0  0  0  0  0  0  0  0  0
   -3.9324    0.8762   -0.8908 H   0  0  0  0  0  0  0  0  0  0  0  0
   -4.0664    0.9400    0.8583 H   0  0  0  0  0  0  0  0  0  0  0  0
   -1.3989    0.1850    0.0216 C   0  0  0  0  0  0  0  0  0  0  0  0
   -2.7323   -1.2426   -0.7440 H   0  0  0  0  0  0  0  0  0  0  0  0
   -2.7508   -1.2741    0.9787 H   0  0  0  0  0  0  0  0  0  0  0  0
   -0.1507   -0.6892    0.0094 C   0  0  0  0  0  0  0  0  0  0  0  0
   -1.2986    0.8837    0.8880 H   0  0  0  0  0  0  0  0  0  0  0  0
   -1.4397    0.7810   -0.8212 H   0  0  0  0  0  0  0  0  0  0  0  0
   -0.1648   -1.2772    0.8812 H   0  0  0  0  0  0  0  0  0  0  0  0
    0.7417   -0.0872    0.0546 H   0  0  0  0  0  0  0  0  0  0  0  0
   -0.1379   -1.4444   -0.9077 H   0  0  0  0  0  0  0  0  0  0  0  0
  1  3  1  0  0  0  0
  1  2  1  0  0  0  0
  1  5  1  0  0  0  0
  2  8  1  0  0  0  0
  4  1  1  0  0  0  0
  6  2  1  0  0  0  0
  6 10  1  0  0  0  0
  7  2  1  0  0  0  0
  9  6  1  0  0  0  0
  9 13  1  0  0  0  0
  9 12  1  0  0  0  0
 11  6  1  0  0  0  0
 14  9  1  0  0  0  0
M  END
$$$$
