butane_opt
 OpenBabel08242015413D

 14 13  0  0  0  0  0  0  0  0999 V2000
   -3.9245    0.2589    0.0294 C   0  0  0  0  0  0  0  0  0  0  0  0
   -2.6997   -0.5979    0.0312 C   0  0  0  0  0  0  0  0  0  0  0  0
   -4.8841   -0.3568   -0.0760 H   0  0  0  0  0  0  0  0  0  0  0  0
   -3.9062    0.7374   -0.7860 H   0  0  0  0  0  0  0  0  0  0  0  0
   -3.9759    1.0211    0.9387 H   0  0  0  0  0  0  0  0  0  0  0  0
   -1.4099    0.1960   -0.0029 C   0  0  0  0  0  0  0  0  0  0  0  0
   -2.7542   -1.2820   -0.8305 H   0  0  0  0  0  0  0  0  0  0  0  0
   -2.7346   -1.2872    0.9392 H   0  0  0  0  0  0  0  0  0  0  0  0
   -0.1634   -0.7092    0.0405 C   0  0  0  0  0  0  0  0  0  0  0  0
   -1.4551    0.8744    0.8333 H   0  0  0  0  0  0  0  0  0  0  0  0
   -1.3708    0.8368   -0.9139 H   0  0  0  0  0  0  0  0  0  0  0  0
   -0.1185   -1.3976    0.9779 H   0  0  0  0  0  0  0  0  0  0  0  0
    0.7521   -0.1015   -0.0273 H   0  0  0  0  0  0  0  0  0  0  0  0
   -0.1990   -1.2947   -0.7736 H   0  0  0  0  0  0  0  0  0  0  0  0
  1  2  1  0  0  0  0
  1  5  1  0  0  0  0
  2  8  1  0  0  0  0
  3  1  1  0  0  0  0
  4  1  1  0  0  0  0
  6  2  1  0  0  0  0
  6  9  1  0  0  0  0
  6 10  1  0  0  0  0
  7  2  1  0  0  0  0
  9 12  1  0  0  0  0
 11  6  1  0  0  0  0
 13  9  1  0  0  0  0
 14  9  1  0  0  0  0
M  END
$$$$
