14
butane_opt
C  -3.935349   0.277327   0.045082
C  -2.692996  -0.630595  -0.003348
H  -4.823206  -0.295665   0.144429
H  -4.041628   0.873745  -0.841768
H  -3.916008   0.915579   0.910169
C  -1.406848   0.176459  -0.018747
H  -2.723336  -1.339693  -0.860662
H  -2.670664  -1.266202   0.901615
C  -0.166752  -0.679566   0.063888
H  -1.471414   0.859755   0.850263
H  -1.356159   0.815647  -0.940811
H  -0.209476  -1.306602   0.993485
H   0.746738  -0.085874   0.028801
H  -0.143067  -1.357075  -0.795848
