butane_opt
 OpenBabel08242015413D

 14 13  0  0  0  0  0  0  0  0999 V2000
   -3.9331    0.2541   -0.0039 C   0  0  0  0  0  0  0  0  0  0  0  0
   -2.7052   -0.5923    0.0667 C   0  0  0  0  0  0  0  0  0  0  0  0
   -4.8343   -0.3290   -0.0766 H   0  0  0  0  0  0  0  0  0  0  0  0
   -3.9234    0.7538   -0.8339 H   0  0  0  0  0  0  0  0  0  0  0  0
   -3.9814    1.0102    0.8962 H   0  0  0  0  0  0  0  0  0  0  0  0
   -1.4072    0.1851    0.0264 C   0  0  0  0  0  0  0  0  0  0  0  0
   -2.7088   -1.2895   -0.7955 H   0  0  0  0  0  0  0  0  0  0  0  0
   -2.7184   -1.2422    0.9679 H   0  0  0  0  0  0  0  0  0  0  0  0
   -0.1677   -0.7043    0.0201 C   0  0  0  0  0  0  0  0  0  0  0  0
   -1.3859    0.8174    0.8713 H   0  0  0  0  0  0  0  0  0  0  0  0
   -1.4315    0.8758   -0.9020 H   0  0  0  0  0  0  0  0  0  0  0  0
   -0.1131   -1.3323    0.8979 H   0  0  0  0  0  0  0  0  0  0  0  0
    0.7918   -0.0676   -0.0602 H   0  0  0  0  0  0  0  0  0  0  0  0
   -0.1639   -1.3751   -0.8284 H   0  0  0  0  0  0  0  0  0  0  0  0
  1  2  1  0  0  0  0
  1  5  1  0  0  0  0
  2  8  1  0  0  0  0
  3  1  1  0  0  0  0
  4  1  1  0  0  0  0
  6  2  1  0  0  0  0
  6 10  1  0  0  0  0
  7  2  1  0  0  0  0
  9  6  1  0  0  0  0
  9 12  1  0  0  0  0
 11  6  1  0  0  0  0
 13  9  1  0  0  0  0
 14  9  1  0  0  0  0
M  END
$$$$
