14
butane_opt
C  -3.938240   0.274440   0.024033
C  -2.688117  -0.620985   0.023325
H  -4.894400  -0.339084   0.158817
H  -4.028587   0.957760  -0.903042
H  -3.921445   0.856836   0.823580
C  -1.403785   0.165619   0.008336
H  -2.670042  -1.305794  -0.835397
H  -2.694468  -1.222404   0.896400
C  -0.171129  -0.680291   0.048904
H  -1.439822   0.844170   0.879486
H  -1.373010   0.783331  -0.888192
H  -0.144262  -1.255159   0.884195
H   0.728094  -0.086313  -0.001885
H  -0.170764  -1.371122  -0.842302
