14
butane_opt
C  -3.952550   0.271191  -0.008448
C  -2.691212  -0.637859   0.056619
H  -4.836786  -0.305115  -0.021198
H  -4.004017   0.967228  -0.934786
H  -4.050734   0.930483   0.834628
C  -1.400557   0.182973   0.052471
H  -2.736621  -1.290116  -0.781015
H  -2.734915  -1.303061   0.977618
C  -0.152827  -0.685404  -0.000147
H  -1.350456   0.946512   0.945897
H  -1.403885   0.756409  -0.786363
H  -0.080144  -1.363328   0.932208
H   0.772841  -0.098752  -0.124292
H  -0.228300  -1.277467  -0.810806
