butane_opt
 OpenBabel08242015413D

 14 13  0  0  0  0  0  0  0  0999 V2000
   -3.9500    0.2520   -0.0149 C   0  0  0  0  0  0  0  0  0  0  0  0
   -2.7051   -0.6019    0.0755 C   0  0  0  0  0  0  0  0  0  0  0  0
   -4.8572   -0.3482   -0.0678 H   0  0  0  0  0  0  0  0  0  0  0  0
   -3.9106    0.8020   -0.8584 H   0  0  0  0  0  0  0  0  0  0  0  0
   -4.0299    0.9307    0.8538 H   0  0  0  0  0  0  0  0  0  0  0  0
   -1.4064    0.1979    0.0453 C   0  0  0  0  0  0  0  0  0  0  0  0
   -2.6993   -1.2386   -0.7544 H   0  0  0  0  0  0  0  0  0  0  0  0
   -2.7818   -1.2200    0.9975 H   0  0  0  0  0  0  0  0  0  0  0  0
   -0.1381   -0.7051    0.0003 C   0  0  0  0  0  0  0  0  0  0  0  0
   -1.3880    0.8648    0.8862 H   0  0  0  0  0  0  0  0  0  0  0  0
   -1.4520    0.8419   -0.8504 H   0  0  0  0  0  0  0  0  0  0  0  0
   -0.1014   -1.3236    0.8948 H   0  0  0  0  0  0  0  0  0  0  0  0
    0.7304   -0.1301   -0.0574 H   0  0  0  0  0  0  0  0  0  0  0  0
   -0.1320   -1.3779   -0.8756 H   0  0  0  0  0  0  0  0  0  0  0  0
  1  2  1  0  0  0  0
  1  5  1  0  0  0  0
  2  8  1  0  0  0  0
  3  1  1  0  0  0  0
  4  1  1  0  0  0  0
  6  2  1  0  0  0  0
  6 10  1  0  0  0  0
  7  2  1  0  0  0  0
  9  6  1  0  0  0  0
  9 12  1  0  0  0  0
 11  6  1  0  0  0  0
 13  9  1  0  0  0  0
 14  9  1  0  0  0  0
M  END
$$$$
