butane_opt
 OpenBabel08242015413D

 14 13  0  0  0  0  0  0  0  0999 V2000
   -3.9629    0.2728   -0.0098 C   0  0  0  0  0  0  0  0  0  0  0  0
   -2.6949   -0.6189    0.0631 C   0  0  0  0  0  0  0  0  0  0  0  0
   -4.8415   -0.3102    0.0749 H   0  0  0  0  0  0  0  0  0  0  0  0
   -3.9958    0.9301   -0.9061 H   0  0  0  0  0  0  0  0  0  0  0  0
   -4.0061    0.8746    0.8123 H   0  0  0  0  0  0  0  0  0  0  0  0
   -1.3977    0.1720    0.0283 C   0  0  0  0  0  0  0  0  0  0  0  0
   -2.6834   -1.2248   -0.7279 H   0  0  0  0  0  0  0  0  0  0  0  0
   -2.6739   -1.3651    1.0432 H   0  0  0  0  0  0  0  0  0  0  0  0
   -0.1586   -0.6800    0.0092 C   0  0  0  0  0  0  0  0  0  0  0  0
   -1.3440    0.8652    0.8992 H   0  0  0  0  0  0  0  0  0  0  0  0
   -1.3576    0.7741   -0.8822 H   0  0  0  0  0  0  0  0  0  0  0  0
   -0.1831   -1.1478    0.8100 H   0  0  0  0  0  0  0  0  0  0  0  0
    0.7569   -0.1011    0.1649 H   0  0  0  0  0  0  0  0  0  0  0  0
   -0.1260   -1.5158   -0.9600 H   0  0  0  0  0  0  0  0  0  0  0  0
  1  2  1  0  0  0  0
  1  3  1  0  0  0  0
  1  5  1  0  0  0  0
  2  8  1  0  0  0  0
  4  1  1  0  0  0  0
  6  2  1  0  0  0  0
  6 10  1  0  0  0  0
  7  2  1  0  0  0  0
  9  6  1  0  0  0  0
  9 13  1  0  0  0  0
  9 12  1  0  0  0  0
 11  6  1  0  0  0  0
 14  9  1  0  0  0  0
M  END
$$$$
