14
butane_opt
C  -3.933335   0.263956   0.050986
C  -2.692184  -0.616150   0.017774
H  -4.863749  -0.349665  -0.065925
H  -3.920993   0.768257  -0.778364
H  -4.000239   0.976306   0.933198
C  -1.406993   0.194154  -0.031037
H  -2.704096  -1.269408  -0.819187
H  -2.674219  -1.241570   0.927119
C  -0.172725  -0.695319   0.057411
H  -1.433198   0.875014   0.820229
H  -1.394047   0.819353  -0.923016
H  -0.210590  -1.351527   0.954376
H   0.727328  -0.121153   0.032446
H  -0.081422  -1.345757  -0.777420
