14
butane_opt
C  -3.953921   0.282319   0.051517
C  -2.700839  -0.624573   0.011023
H  -4.852516  -0.317871   0.102257
H  -3.973989   0.874213  -0.846034
H  -3.900242   0.935281   0.917089
C  -1.394576   0.164926  -0.026685
H  -2.743872  -1.359711  -0.885281
H  -2.660087  -1.225201   0.865107
C  -0.165916  -0.682357   0.061731
H  -1.383611   0.797438   0.787506
H  -1.370395   0.884697  -0.954705
H  -0.268501  -1.278590   0.939907
H   0.752008  -0.066294   0.136062
H  -0.050445  -1.394359  -0.797948
