14
butane_opt
C  -3.936067   0.250232  -0.017047
C  -2.699532  -0.598263   0.069401
H  -4.872357  -0.377851   0.037334
H  -3.926746   0.916338  -0.941563
H  -4.023191   0.904738   0.802849
C  -1.409728   0.195229   0.047916
H  -2.734030  -1.259628  -0.791381
H  -2.738968  -1.247272   0.993255
C  -0.151838  -0.705323  -0.003950
H  -1.405469   0.939411   0.968851
H  -1.421227   0.749800  -0.768999
H  -0.071884  -1.357783   0.923951
H   0.742979  -0.109136  -0.106521
H  -0.193909  -1.338975  -0.836845
