butane_opt
 OpenBabel08242015413D

 14 13  0  0  0  0  0  0  0  0999 V2000
   -3.9292    0.2558    0.0021 C   0  0  0  0  0  0  0  0  0  0  0  0
   -2.7012   -0.6100    0.0562 C   0  0  0  0  0  0  0  0  0  0  0  0
   -4.8072   -0.3235    0.0402 H   0  0  0  0  0  0  0  0  0  0  0  0
   -3.9436    0.9000   -0.9279 H   0  0  0  0  0  0  0  0  0  0  0  0
   -3.9391    0.9187    0.8551 H   0  0  0  0  0  0  0  0  0  0  0  0
   -1.4195    0.1924    0.0341 C   0  0  0  0  0  0  0  0  0  0  0  0
   -2.6968   -1.3351   -0.8488 H   0  0  0  0  0  0  0  0  0  0  0  0
   -2.7212   -1.2429    0.9276 H   0  0  0  0  0  0  0  0  0  0  0  0
   -0.1641   -0.6949    0.0220 C   0  0  0  0  0  0  0  0  0  0  0  0
   -1.4415    0.8726    0.8975 H   0  0  0  0  0  0  0  0  0  0  0  0
   -1.3965    0.8214   -0.8720 H   0  0  0  0  0  0  0  0  0  0  0  0
   -0.0803   -1.3310    0.9109 H   0  0  0  0  0  0  0  0  0  0  0  0
    0.7449   -0.1001   -0.0948 H   0  0  0  0  0  0  0  0  0  0  0  0
   -0.1805   -1.3580   -0.8246 H   0  0  0  0  0  0  0  0  0  0  0  0
  1  3  1  0  0  0  0
  1  2  1  0  0  0  0
  1  5  1  0  0  0  0
  2  8  1  0  0  0  0
  4  1  1  0  0  0  0
  6  2  1  0  0  0  0
  6 10  1  0  0  0  0
  7  2  1  0  0  0  0
  9  6  1  0  0  0  0
  9 12  1  0  0  0  0
 11  6  1  0  0  0  0
 13  9  1  0  0  0  0
 14  9  1  0  0  0  0
M  END
$$$$
