butane_opt
 OpenBabel08242015413D

 14 13  0  0  0  0  0  0  0  0999 V2000
   -3.9562    0.2786    0.0325 C   0  0  0  0  0  0  0  0  0  0  0  0
   -2.6899   -0.6321    0.0199 C   0  0  0  0  0  0  0  0  0  0  0  0
   -4.8464   -0.2747   -0.0046 H   0  0  0  0  0  0  0  0  0  0  0  0
   -4.0328    0.8379   -0.8164 H   0  0  0  0  0  0  0  0  0  0  0  0
   -3.9659    0.9689    0.8958 H   0  0  0  0  0  0  0  0  0  0  0  0
   -1.3921    0.1703   -0.0016 C   0  0  0  0  0  0  0  0  0  0  0  0
   -2.7135   -1.3531   -0.8539 H   0  0  0  0  0  0  0  0  0  0  0  0
   -2.7305   -1.2239    0.9051 H   0  0  0  0  0  0  0  0  0  0  0  0
   -0.1654   -0.6771    0.0449 C   0  0  0  0  0  0  0  0  0  0  0  0
   -1.3494    0.8981    0.8639 H   0  0  0  0  0  0  0  0  0  0  0  0
   -1.3553    0.7760   -0.8631 H   0  0  0  0  0  0  0  0  0  0  0  0
   -0.1413   -1.4404    1.0337 H   0  0  0  0  0  0  0  0  0  0  0  0
    0.7292   -0.1156   -0.0917 H   0  0  0  0  0  0  0  0  0  0  0  0
   -0.1769   -1.2222   -0.7636 H   0  0  0  0  0  0  0  0  0  0  0  0
  1  5  1  0  0  0  0
  2  1  1  0  0  0  0
  2  8  1  0  0  0  0
  3  1  1  0  0  0  0
  4  1  1  0  0  0  0
  6  2  1  0  0  0  0
  6  9  1  0  0  0  0
  6 10  1  0  0  0  0
  7  2  1  0  0  0  0
  9 12  1  0  0  0  0
 11  6  1  0  0  0  0
 13  9  1  0  0  0  0
 14  9  1  0  0  0  0
M  END
$$$$
