butane_opt
 OpenBabel08242015413D

 14 13  0  0  0  0  0  0  0  0999 V2000
   -3.9233    0.2461   -0.0083 C   0  0  0  0  0  0  0  0  0  0  0  0
   -2.6992   -0.6025    0.0730 C   0  0  0  0  0  0  0  0  0  0  0  0
   -4.8644   -0.3463   -0.0340 H   0  0  0  0  0  0  0  0  0  0  0  0
   -3.9035    0.8753   -0.9126 H   0  0  0  0  0  0  0  0  0  0  0  0
   -3.9863    0.9616    0.8927 H   0  0  0  0  0  0  0  0  0  0  0  0
   -1.4180    0.1948    0.0283 C   0  0  0  0  0  0  0  0  0  0  0  0
   -2.7355   -1.2673   -0.7613 H   0  0  0  0  0  0  0  0  0  0  0  0
   -2.7369   -1.2561    0.9921 H   0  0  0  0  0  0  0  0  0  0  0  0
   -0.1630   -0.7018    0.0155 C   0  0  0  0  0  0  0  0  0  0  0  0
   -1.4621    0.8726    0.8738 H   0  0  0  0  0  0  0  0  0  0  0  0
   -1.4208    0.8598   -0.8668 H   0  0  0  0  0  0  0  0  0  0  0  0
   -0.0844   -1.2568    0.8481 H   0  0  0  0  0  0  0  0  0  0  0  0
    0.7374   -0.1153   -0.0042 H   0  0  0  0  0  0  0  0  0  0  0  0
   -0.1237   -1.4451   -0.9030 H   0  0  0  0  0  0  0  0  0  0  0  0
  1  2  1  0  0  0  0
  1  5  1  0  0  0  0
  2  8  1  0  0  0  0
  3  1  1  0  0  0  0
  4  1  1  0  0  0  0
  6  2  1  0  0  0  0
  6 10  1  0  0  0  0
  7  2  1  0  0  0  0
  9  6  1  0  0  0  0
  9 12  1  0  0  0  0
 11  6  1  0  0  0  0
 13  9  1  0  0  0  0
 14  9  1  0  0  0  0
M  END
$$$$
