14
butane_opt
C  -3.955889   0.270841  -0.012709
C  -2.705716  -0.620663   0.078186
H  -4.841776  -0.294859   0.012070
H  -3.969667   0.961549  -0.958272
H  -4.028673   0.918586   0.820150
C  -1.387793   0.174515   0.051080
H  -2.680748  -1.319659  -0.798421
H  -2.732052  -1.247868   0.946397
C  -0.161107  -0.686605  -0.005818
H  -1.347036   0.833881   0.904976
H  -1.410277   0.757536  -0.824800
H  -0.111754  -1.326444   0.868814
H   0.801910  -0.044298   0.001214
H  -0.183740  -1.349854  -0.858375
