butane_opt
 OpenBabel08242015413D

 14 13  0  0  0  0  0  0  0  0999 V2000
   -3.9604    0.2738    0.0390 C   0  0  0  0  0  0  0  0  0  0  0  0
   -2.7086   -0.6190    0.0196 C   0  0  0  0  0  0  0  0  0  0  0  0
   -4.8657   -0.3107   -0.0273 H   0  0  0  0  0  0  0  0  0  0  0  0
   -3.9982    0.8595   -0.8140 H   0  0  0  0  0  0  0  0  0  0  0  0
   -3.9841    0.9984    0.9226 H   0  0  0  0  0  0  0  0  0  0  0  0
   -1.3885    0.1723    0.0004 C   0  0  0  0  0  0  0  0  0  0  0  0
   -2.6693   -1.3692   -0.8973 H   0  0  0  0  0  0  0  0  0  0  0  0
   -2.7193   -1.2338    0.8910 H   0  0  0  0  0  0  0  0  0  0  0  0
   -0.1609   -0.6866    0.0454 C   0  0  0  0  0  0  0  0  0  0  0  0
   -1.3487    0.8016    0.8384 H   0  0  0  0  0  0  0  0  0  0  0  0
   -1.3550    0.8218   -0.9203 H   0  0  0  0  0  0  0  0  0  0  0  0
   -0.0982   -1.3796    1.0101 H   0  0  0  0  0  0  0  0  0  0  0  0
    0.7662   -0.0822   -0.0735 H   0  0  0  0  0  0  0  0  0  0  0  0
   -0.1349   -1.2540   -0.7270 H   0  0  0  0  0  0  0  0  0  0  0  0
  1  5  1  0  0  0  0
  2  1  1  0  0  0  0
  2  8  1  0  0  0  0
  3  1  1  0  0  0  0
  4  1  1  0  0  0  0
  6  2  1  0  0  0  0
  6  9  1  0  0  0  0
  6 10  1  0  0  0  0
  7  2  1  0  0  0  0
  9 12  1  0  0  0  0
 11  6  1  0  0  0  0
 13  9  1  0  0  0  0
 14  9  1  0  0  0  0
M  END
$$$$
