butane_opt
 OpenBabel08242015413D

 14 13  0  0  0  0  0  0  0  0999 V2000
   -3.9371    0.2599   -0.0063 C   0  0  0  0  0  0  0  0  0  0  0  0
   -2.7162   -0.6125    0.0679 C   0  0  0  0  0  0  0  0  0  0  0  0
   -4.8391   -0.3414    0.0317 H   0  0  0  0  0  0  0  0  0  0  0  0
   -3.9380    0.9289   -0.9045 H   0  0  0  0  0  0  0  0  0  0  0  0
   -3.9762    0.8995    0.8384 H   0  0  0  0  0  0  0  0  0  0  0  0
   -1.4051    0.1950    0.0298 C   0  0  0  0  0  0  0  0  0  0  0  0
   -2.7159   -1.2485   -0.7431 H   0  0  0  0  0  0  0  0  0  0  0  0
   -2.7055   -1.2850    0.9791 H   0  0  0  0  0  0  0  0  0  0  0  0
   -0.1514   -0.6999    0.0117 C   0  0  0  0  0  0  0  0  0  0  0  0
   -1.3936    0.8458    0.8516 H   0  0  0  0  0  0  0  0  0  0  0  0
   -1.3869    0.8449   -0.8817 H   0  0  0  0  0  0  0  0  0  0  0  0
   -0.1450   -1.2095    0.8434 H   0  0  0  0  0  0  0  0  0  0  0  0
    0.7514   -0.1086    0.1280 H   0  0  0  0  0  0  0  0  0  0  0  0
   -0.1544   -1.5132   -0.9557 H   0  0  0  0  0  0  0  0  0  0  0  0
  1  3  1  0  0  0  0
  1  2  1  0  0  0  0
  1  5  1  0  0  0  0
  2  8  1  0  0  0  0
  4  1  1  0  0  0  0
  6  2  1  0  0  0  0
  6 10  1  0  0  0  0
  7  2  1  0  0  0  0
  9  6  1  0  0  0  0
  9 13  1  0  0  0  0
  9 12  1  0  0  0  0
 11  6  1  0  0  0  0
 14  9  1  0  0  0  0
M  END
$$$$
