butane_opt
 OpenBabel08242015413D

 14 13  0  0  0  0  0  0  0  0999 V2000
   -3.9575    0.2831   -0.0066 C   0  0  0  0  0  0  0  0  0  0  0  0
   -2.6954   -0.6425    0.0491 C   0  0  0  0  0  0  0  0  0  0  0  0
   -4.8561   -0.3171    0.2105 H   0  0  0  0  0  0  0  0  0  0  0  0
   -4.0345    1.0137   -0.9910 H   0  0  0  0  0  0  0  0  0  0  0  0
   -3.9543    0.8006    0.7588 H   0  0  0  0  0  0  0  0  0  0  0  0
   -1.3973    0.1781    0.0369 C   0  0  0  0  0  0  0  0  0  0  0  0
   -2.7260   -1.2799   -0.7766 H   0  0  0  0  0  0  0  0  0  0  0  0
   -2.6766   -1.2756    0.9357 H   0  0  0  0  0  0  0  0  0  0  0  0
   -0.1588   -0.6795    0.0133 C   0  0  0  0  0  0  0  0  0  0  0  0
   -1.3606    0.9260    0.9722 H   0  0  0  0  0  0  0  0  0  0  0  0
   -1.3858    0.7452   -0.8171 H   0  0  0  0  0  0  0  0  0  0  0  0
   -0.1230   -1.2544    0.8592 H   0  0  0  0  0  0  0  0  0  0  0  0
    0.7340   -0.0911    0.0447 H   0  0  0  0  0  0  0  0  0  0  0  0
   -0.1400   -1.4038   -0.8892 H   0  0  0  0  0  0  0  0  0  0  0  0
  1  2  1  0  0  0  0
  1  3  1  0  0  0  0
  1  5  1  0  0  0  0
  2  8  1  0  0  0  0
  4  1  1  0  0  0  0
  6  2  1  0  0  0  0
  6 10  1  0  0  0  0
  7  2  1  0  0  0  0
  9  6  1  0  0  0  0
  9 13  1  0  0  0  0
  9 12  1  0  0  0  0
 11  6  1  0  0  0  0
 14  9  1  0  0  0  0
M  END
$$$$
