butane_opt
 OpenBabel08242015413D

 14 13  0  0  0  0  0  0  0  0999 V2000
   -3.9452    0.2508    0.0373 C   0  0  0  0  0  0  0  0  0  0  0  0
   -2.7029   -0.6046    0.0082 C   0  0  0  0  0  0  0  0  0  0  0  0
   -4.8715   -0.3684    0.1496 H   0  0  0  0  0  0  0  0  0  0  0  0
   -4.0240    0.9283   -0.8809 H   0  0  0  0  0  0  0  0  0  0  0  0
   -3.8815    0.9274    0.9006 H   0  0  0  0  0  0  0  0  0  0  0  0
   -1.4060    0.1989   -0.0146 C   0  0  0  0  0  0  0  0  0  0  0  0
   -2.8103   -1.3026   -0.8668 H   0  0  0  0  0  0  0  0  0  0  0  0
   -2.6947   -1.2099    0.8828 H   0  0  0  0  0  0  0  0  0  0  0  0
   -0.1453   -0.7096    0.0559 C   0  0  0  0  0  0  0  0  0  0  0  0
   -1.3974    0.9167    0.8444 H   0  0  0  0  0  0  0  0  0  0  0  0
   -1.3887    0.8154   -0.8809 H   0  0  0  0  0  0  0  0  0  0  0  0
   -0.2011   -1.3313    0.9903 H   0  0  0  0  0  0  0  0  0  0  0  0
    0.7408   -0.1218    0.0211 H   0  0  0  0  0  0  0  0  0  0  0  0
   -0.0887   -1.3610   -0.7726 H   0  0  0  0  0  0  0  0  0  0  0  0
  1  3  1  0  0  0  0
  1  5  1  0  0  0  0
  2  1  1  0  0  0  0
  2  8  1  0  0  0  0
  4  1  1  0  0  0  0
  6  2  1  0  0  0  0
  6  9  1  0  0  0  0
  6 10  1  0  0  0  0
  7  2  1  0  0  0  0
  9 12  1  0  0  0  0
 11  6  1  0  0  0  0
 13  9  1  0  0  0  0
 14  9  1  0  0  0  0
M  END
$$$$
