butane_opt
 OpenBabel08242015413D

 14 13  0  0  0  0  0  0  0  0999 V2000
   -3.9589    0.2710    0.0294 C   0  0  0  0  0  0  0  0  0  0  0  0
   -2.7006   -0.6257    0.0270 C   0  0  0  0  0  0  0  0  0  0  0  0
   -4.8477   -0.2719   -0.0982 H   0  0  0  0  0  0  0  0  0  0  0  0
   -3.9647    0.7642   -0.7925 H   0  0  0  0  0  0  0  0  0  0  0  0
   -4.0353    1.0540    0.9752 H   0  0  0  0  0  0  0  0  0  0  0  0
   -1.4079    0.1748    0.0009 C   0  0  0  0  0  0  0  0  0  0  0  0
   -2.7555   -1.2914   -0.8097 H   0  0  0  0  0  0  0  0  0  0  0  0
   -2.6741   -1.2542    0.9283 H   0  0  0  0  0  0  0  0  0  0  0  0
   -0.1483   -0.6849    0.0483 C   0  0  0  0  0  0  0  0  0  0  0  0
   -1.3959    0.7825    0.7861 H   0  0  0  0  0  0  0  0  0  0  0  0
   -1.3396    0.8402   -0.9156 H   0  0  0  0  0  0  0  0  0  0  0  0
   -0.1021   -1.3573    0.9680 H   0  0  0  0  0  0  0  0  0  0  0  0
    0.8080   -0.0496   -0.0646 H   0  0  0  0  0  0  0  0  0  0  0  0
   -0.1374   -1.3024   -0.7957 H   0  0  0  0  0  0  0  0  0  0  0  0
  1  5  1  0  0  0  0
  2  1  1  0  0  0  0
  2  8  1  0  0  0  0
  3  1  1  0  0  0  0
  4  1  1  0  0  0  0
  6  2  1  0  0  0  0
  6  9  1  0  0  0  0
  6 10  1  0  0  0  0
  7  2  1  0  0  0  0
  9 12  1  0  0  0  0
 11  6  1  0  0  0  0
 13  9  1  0  0  0  0
 14  9  1  0  0  0  0
M  END
$$$$
