14
butane_opt
C  -3.931824   0.251414   0.043305
C  -2.699459  -0.604579  -0.006000
H  -4.834932  -0.344097   0.012494
H  -3.978410   0.822616  -0.837090
H  -3.887333   0.956074   0.942671
C  -1.417398   0.199720  -0.000230
H  -2.763118  -1.289731  -0.851969
H  -2.716339  -1.208133   0.881099
C  -0.159058  -0.700655   0.060317
H  -1.434363   0.854816   0.856045
H  -1.417798   0.815837  -0.898521
H  -0.035803  -1.432146   1.035293
H   0.713732  -0.151022  -0.141125
H  -0.178549  -1.241122  -0.716582
