14
butane_opt
C  -3.920200   0.256129   0.002630
C  -2.707009  -0.600372   0.045499
H  -4.840401  -0.345331   0.164339
H  -3.972616   0.942231  -0.937304
H  -3.928570   0.809010   0.779688
C  -1.417681   0.196767   0.027981
H  -2.741024  -1.300637  -0.817235
H  -2.739985  -1.207037   0.910573
C  -0.163614  -0.702910   0.021647
H  -1.350433   0.884293   0.914433
H  -1.433030   0.796052  -0.820390
H  -0.111591  -1.289608   0.916981
H   0.745146  -0.152101  -0.001038
H  -0.146724  -1.402964  -0.851578
