butane_opt
 OpenBabel08242015413D

 14 13  0  0  0  0  0  0  0  0999 V2000
   -3.9387    0.2667    0.0461 C   0  0  0  0  0  0  0  0  0  0  0  0
   -2.7107   -0.6255    0.0186 C   0  0  0  0  0  0  0  0  0  0  0  0
   -4.8519   -0.3219    0.0203 H   0  0  0  0  0  0  0  0  0  0  0  0
   -3.9759    0.8660   -0.8172 H   0  0  0  0  0  0  0  0  0  0  0  0
   -3.9621    0.9791    0.9251 H   0  0  0  0  0  0  0  0  0  0  0  0
   -1.4001    0.1978   -0.0278 C   0  0  0  0  0  0  0  0  0  0  0  0
   -2.7549   -1.2828   -0.8247 H   0  0  0  0  0  0  0  0  0  0  0  0
   -2.7274   -1.2788    0.9063 H   0  0  0  0  0  0  0  0  0  0  0  0
   -0.1508   -0.6945    0.0528 C   0  0  0  0  0  0  0  0  0  0  0  0
   -1.4000    0.8426    0.7963 H   0  0  0  0  0  0  0  0  0  0  0  0
   -1.4142    0.8157   -0.9164 H   0  0  0  0  0  0  0  0  0  0  0  0
   -0.2064   -1.3169    0.9578 H   0  0  0  0  0  0  0  0  0  0  0  0
    0.7573   -0.1163    0.1578 H   0  0  0  0  0  0  0  0  0  0  0  0
   -0.0861   -1.3943   -0.8345 H   0  0  0  0  0  0  0  0  0  0  0  0
  1  5  1  0  0  0  0
  2  1  1  0  0  0  0
  2  8  1  0  0  0  0
  3  1  1  0  0  0  0
  4  1  1  0  0  0  0
  6  2  1  0  0  0  0
  6  9  1  0  0  0  0
  6 10  1  0  0  0  0
  7  2  1  0  0  0  0
  9 13  1  0  0  0  0
  9 12  1  0  0  0  0
 11  6  1  0  0  0  0
 14  9  1  0  0  0  0
M  END
$$$$
