14
butane_opt
C  -3.948679   0.261888   0.028548
C  -2.705253  -0.620999   0.035040
H  -4.819901  -0.292950  -0.051536
H  -4.000968   0.796069  -0.816421
H  -3.999289   1.065111   0.957289
C  -1.402316   0.193577  -0.017116
H  -2.781036  -1.287862  -0.823015
H  -2.682583  -1.321656   0.943996
C  -0.157488  -0.697218   0.049514
H  -1.395889   0.850697   0.816983
H  -1.348749   0.827166  -0.913677
H  -0.096064  -1.309042   0.958789
H   0.781752  -0.077164   0.049097
H  -0.120779  -1.362366  -0.826780
