butane_opt
 OpenBabel08242015413D

 14 13  0  0  0  0  0  0  0  0999 V2000
   -3.9445    0.2581   -0.0082 C   0  0  0  0  0  0  0  0  0  0  0  0
   -2.7187   -0.6102    0.0523 C   0  0  0  0  0  0  0  0  0  0  0  0
   -4.8772   -0.3627    0.1291 H   0  0  0  0  0  0  0  0  0  0  0  0
   -3.9834    0.9807   -0.9722 H   0  0  0  0  0  0  0  0  0  0  0  0
   -3.9267    0.8227    0.7756 H   0  0  0  0  0  0  0  0  0  0  0  0
   -1.3996    0.1979    0.0501 C   0  0  0  0  0  0  0  0  0  0  0  0
   -2.7364   -1.2553   -0.7767 H   0  0  0  0  0  0  0  0  0  0  0  0
   -2.7435   -1.2347    0.9459 H   0  0  0  0  0  0  0  0  0  0  0  0
   -0.1388   -0.7051    0.0076 C   0  0  0  0  0  0  0  0  0  0  0  0
   -1.4298    0.9059    0.9233 H   0  0  0  0  0  0  0  0  0  0  0  0
   -1.3875    0.8146   -0.7897 H   0  0  0  0  0  0  0  0  0  0  0  0
   -0.0796   -1.2867    0.8765 H   0  0  0  0  0  0  0  0  0  0  0  0
    0.7268   -0.1433   -0.0423 H   0  0  0  0  0  0  0  0  0  0  0  0
   -0.1579   -1.4097   -0.8726 H   0  0  0  0  0  0  0  0  0  0  0  0
  1  2  1  0  0  0  0
  1  3  1  0  0  0  0
  1  5  1  0  0  0  0
  2  8  1  0  0  0  0
  4  1  1  0  0  0  0
  6  2  1  0  0  0  0
  6 10  1  0  0  0  0
  7  2  1  0  0  0  0
  9  6  1  0  0  0  0
  9 12  1  0  0  0  0
 11  6  1  0  0  0  0
 13  9  1  0  0  0  0
 14  9  1  0  0  0  0
M  END
$$$$
