butane_opt
 OpenBabel08242015413D

 14 13  0  0  0  0  0  0  0  0999 V2000
   -3.9550    0.2707    0.0163 C   0  0  0  0  0  0  0  0  0  0  0  0
   -2.6859   -0.6176    0.0367 C   0  0  0  0  0  0  0  0  0  0  0  0
   -4.8465   -0.3195    0.1260 H   0  0  0  0  0  0  0  0  0  0  0  0
   -4.0215    0.9769   -0.9607 H   0  0  0  0  0  0  0  0  0  0  0  0
   -3.9041    0.8781    0.8558 H   0  0  0  0  0  0  0  0  0  0  0  0
   -1.4025    0.1608    0.0221 C   0  0  0  0  0  0  0  0  0  0  0  0
   -2.6531   -1.3321   -0.8193 H   0  0  0  0  0  0  0  0  0  0  0  0
   -2.6888   -1.2341    0.9035 H   0  0  0  0  0  0  0  0  0  0  0  0
   -0.1740   -0.6803    0.0265 C   0  0  0  0  0  0  0  0  0  0  0  0
   -1.3774    0.8783    0.8794 H   0  0  0  0  0  0  0  0  0  0  0  0
   -1.3690    0.7998   -0.8905 H   0  0  0  0  0  0  0  0  0  0  0  0
   -0.1927   -1.2850    0.9211 H   0  0  0  0  0  0  0  0  0  0  0  0
    0.7680   -0.0527    0.0358 H   0  0  0  0  0  0  0  0  0  0  0  0
   -0.1364   -1.3753   -0.8421 H   0  0  0  0  0  0  0  0  0  0  0  0
  1  2  1  0  0  0  0
  1  3  1  0  0  0  0
  1  5  1  0  0  0  0
  2  8  1  0  0  0  0
  4  1  1  0  0  0  0
  6  9  1  0  0  0  0
  6  2  1  0  0  0  0
  6 10  1  0  0  0  0
  7  2  1  0  0  0  0
  9 13  1  0  0  0  0
  9 12  1  0  0  0  0
 11  6  1  0  0  0  0
 14  9  1  0  0  0  0
M  END
$$$$
