14
butane_opt
C  -3.934018   0.250150  -0.006479
C  -2.687363  -0.607260   0.068898
H  -4.871975  -0.371137   0.087026
H  -3.901668   0.908072  -0.918593
H  -3.931840   0.905141   0.837703
C  -1.418532   0.200048   0.011999
H  -2.725259  -1.215636  -0.742371
H  -2.735176  -1.297054   1.005108
C  -0.170019  -0.702660   0.016969
H  -1.423582   0.946410   0.898543
H  -1.381954   0.826099  -0.853232
H  -0.157411  -1.212034   0.824870
H   0.718996  -0.134615   0.140931
H  -0.090080  -1.525169  -0.954200
