14
butane_opt
C  -3.955134   0.275753   0.030587
C  -2.705797  -0.622433   0.032142
H  -4.885962  -0.340425   0.089982
H  -4.012726   0.860026  -0.851586
H  -3.949214   0.970324   0.900868
C  -1.397257   0.181175  -0.013527
H  -2.688999  -1.310694  -0.834420
H  -2.735572  -1.248929   0.898498
C  -0.156221  -0.689527   0.052040
H  -1.355941   0.790935   0.806423
H  -1.346195   0.827984  -0.947072
H  -0.173685  -1.230284   0.886639
H   0.763708  -0.100486   0.105902
H  -0.068564  -1.425435  -0.828316
