butane_opt
 OpenBabel08242015413D

 14 13  0  0  0  0  0  0  0  0999 V2000
   -3.9350    0.2582    0.0508 C   0  0  0  0  0  0  0  0  0  0  0  0
   -2.7015   -0.5994   -0.0103 C   0  0  0  0  0  0  0  0  0  0  0  0
   -4.8612   -0.3680    0.1861 H   0  0  0  0  0  0  0  0  0  0  0  0
   -4.0211    0.8851   -0.8485 H   0  0  0  0  0  0  0  0  0  0  0  0
   -3.8460    0.8626    0.9161 H   0  0  0  0  0  0  0  0  0  0  0  0
   -1.4110    0.2037   -0.0169 C   0  0  0  0  0  0  0  0  0  0  0  0
   -2.7388   -1.3502   -0.9102 H   0  0  0  0  0  0  0  0  0  0  0  0
   -2.7118   -1.2080    0.8476 H   0  0  0  0  0  0  0  0  0  0  0  0
   -0.1680   -0.7125    0.0714 C   0  0  0  0  0  0  0  0  0  0  0  0
   -1.3958    0.8202    0.8050 H   0  0  0  0  0  0  0  0  0  0  0  0
   -1.3694    0.8792   -0.9424 H   0  0  0  0  0  0  0  0  0  0  0  0
   -0.1626   -1.3151    0.9613 H   0  0  0  0  0  0  0  0  0  0  0  0
    0.7411   -0.1159    0.0364 H   0  0  0  0  0  0  0  0  0  0  0  0
   -0.0688   -1.3560   -0.7541 H   0  0  0  0  0  0  0  0  0  0  0  0
  1  3  1  0  0  0  0
  1  5  1  0  0  0  0
  2  1  1  0  0  0  0
  2  8  1  0  0  0  0
  4  1  1  0  0  0  0
  6  2  1  0  0  0  0
  6  9  1  0  0  0  0
  6 10  1  0  0  0  0
  7  2  1  0  0  0  0
  9 12  1  0  0  0  0
 11  6  1  0  0  0  0
 13  9  1  0  0  0  0
 14  9  1  0  0  0  0
M  END
$$$$
