butane_opt
 OpenBabel08242015413D

 14 13  0  0  0  0  0  0  0  0999 V2000
   -3.9368    0.2754    0.0552 C   0  0  0  0  0  0  0  0  0  0  0  0
   -2.6873   -0.6291    0.0026 C   0  0  0  0  0  0  0  0  0  0  0  0
   -4.8541   -0.3152    0.1057 H   0  0  0  0  0  0  0  0  0  0  0  0
   -4.0701    0.8952   -0.8277 H   0  0  0  0  0  0  0  0  0  0  0  0
   -3.9172    0.9478    0.9250 H   0  0  0  0  0  0  0  0  0  0  0  0
   -1.4147    0.1639   -0.0419 C   0  0  0  0  0  0  0  0  0  0  0  0
   -2.7075   -1.3103   -0.8692 H   0  0  0  0  0  0  0  0  0  0  0  0
   -2.6825   -1.2275    0.8755 H   0  0  0  0  0  0  0  0  0  0  0  0
   -0.1693   -0.6789    0.0676 C   0  0  0  0  0  0  0  0  0  0  0  0
   -1.3777    0.8659    0.8458 H   0  0  0  0  0  0  0  0  0  0  0  0
   -1.3695    0.8119   -0.9502 H   0  0  0  0  0  0  0  0  0  0  0  0
   -0.2551   -1.2889    0.9746 H   0  0  0  0  0  0  0  0  0  0  0  0
    0.7832   -0.0506    0.1203 H   0  0  0  0  0  0  0  0  0  0  0  0
   -0.0796   -1.3728   -0.7642 H   0  0  0  0  0  0  0  0  0  0  0  0
  1  3  1  0  0  0  0
  1  5  1  0  0  0  0
  2  1  1  0  0  0  0
  2  8  1  0  0  0  0
  4  1  1  0  0  0  0
  6  2  1  0  0  0  0
  6  9  1  0  0  0  0
  6 10  1  0  0  0  0
  7  2  1  0  0  0  0
  9 13  1  0  0  0  0
  9 12  1  0  0  0  0
 11  6  1  0  0  0  0
 14  9  1  0  0  0  0
M  END
$$$$
