butane_opt
 OpenBabel08242015413D

 14 13  0  0  0  0  0  0  0  0999 V2000
   -3.9427    0.2658   -0.0128 C   0  0  0  0  0  0  0  0  0  0  0  0
   -2.6938   -0.6105    0.0726 C   0  0  0  0  0  0  0  0  0  0  0  0
   -4.8786   -0.3250   -0.0342 H   0  0  0  0  0  0  0  0  0  0  0  0
   -3.8935    0.8881   -0.9059 H   0  0  0  0  0  0  0  0  0  0  0  0
   -4.0090    0.8805    0.8228 H   0  0  0  0  0  0  0  0  0  0  0  0
   -1.4055    0.1791    0.0411 C   0  0  0  0  0  0  0  0  0  0  0  0
   -2.6436   -1.2750   -0.7608 H   0  0  0  0  0  0  0  0  0  0  0  0
   -2.6896   -1.2733    0.9658 H   0  0  0  0  0  0  0  0  0  0  0  0
   -0.1678   -0.6923    0.0019 C   0  0  0  0  0  0  0  0  0  0  0  0
   -1.3657    0.9540    0.9647 H   0  0  0  0  0  0  0  0  0  0  0  0
   -1.4114    0.7338   -0.7985 H   0  0  0  0  0  0  0  0  0  0  0  0
   -0.1253   -1.3419    0.9260 H   0  0  0  0  0  0  0  0  0  0  0  0
    0.7457   -0.0983   -0.1213 H   0  0  0  0  0  0  0  0  0  0  0  0
   -0.2326   -1.3235   -0.8536 H   0  0  0  0  0  0  0  0  0  0  0  0
  1  2  1  0  0  0  0
  1  5  1  0  0  0  0
  2  8  1  0  0  0  0
  3  1  1  0  0  0  0
  4  1  1  0  0  0  0
  6  2  1  0  0  0  0
  6 10  1  0  0  0  0
  7  2  1  0  0  0  0
  9  6  1  0  0  0  0
  9 12  1  0  0  0  0
 11  6  1  0  0  0  0
 13  9  1  0  0  0  0
 14  9  1  0  0  0  0
M  END
$$$$
