14
butane_opt
C  -3.962903   0.275015   0.055201
C  -2.690693  -0.631789   0.010046
H  -4.855106  -0.316501   0.083263
H  -3.989297   0.903565  -0.831273
H  -4.025016   0.963695   0.934050
C  -1.391478   0.178208  -0.032436
H  -2.744569  -1.355753  -0.907963
H  -2.709124  -1.229909   0.891396
C  -0.156489  -0.684555   0.066018
H  -1.409171   0.806685   0.776418
H  -1.365224   0.851756  -0.959124
H  -0.204061  -1.274567   0.951792
H   0.785946  -0.067293   0.122638
H  -0.090676  -1.391369  -0.803207
