butane_opt
 OpenBabel08242015413D

 14 13  0  0  0  0  0  0  0  0999 V2000
   -3.9360    0.2699    0.0002 C   0  0  0  0  0  0  0  0  0  0  0  0
   -2.7021   -0.6253    0.0642 C   0  0  0  0  0  0  0  0  0  0  0  0
   -4.8044   -0.2722    0.0990 H   0  0  0  0  0  0  0  0  0  0  0  0
   -3.9771    0.8863   -0.9217 H   0  0  0  0  0  0  0  0  0  0  0  0
   -3.9843    0.9079    0.8409 H   0  0  0  0  0  0  0  0  0  0  0  0
   -1.4003    0.1828    0.0078 C   0  0  0  0  0  0  0  0  0  0  0  0
   -2.6994   -1.2759   -0.7633 H   0  0  0  0  0  0  0  0  0  0  0  0
   -2.6881   -1.2751    0.9637 H   0  0  0  0  0  0  0  0  0  0  0  0
   -0.1672   -0.6928    0.0159 C   0  0  0  0  0  0  0  0  0  0  0  0
   -1.3525    0.8827    0.8812 H   0  0  0  0  0  0  0  0  0  0  0  0
   -1.4149    0.7924   -0.8396 H   0  0  0  0  0  0  0  0  0  0  0  0
   -0.2651   -1.2223    0.8686 H   0  0  0  0  0  0  0  0  0  0  0  0
    0.7513   -0.0681    0.1584 H   0  0  0  0  0  0  0  0  0  0  0  0
   -0.1201   -1.4431   -0.9121 H   0  0  0  0  0  0  0  0  0  0  0  0
  1  2  1  0  0  0  0
  1  3  1  0  0  0  0
  1  5  1  0  0  0  0
  2  8  1  0  0  0  0
  4  1  1  0  0  0  0
  6  9  1  0  0  0  0
  6  2  1  0  0  0  0
  6 10  1  0  0  0  0
  7  2  1  0  0  0  0
  9 13  1  0  0  0  0
  9 12  1  0  0  0  0
 11  6  1  0  0  0  0
 14  9  1  0  0  0  0
M  END
$$$$
