14
butane_opt
C  -3.946105   0.271499  -0.010589
C  -2.710710  -0.619603   0.070574
H  -4.851940  -0.305595   0.105370
H  -4.022061   0.970859  -0.938186
H  -3.992685   0.880779   0.790966
C  -1.402012   0.171635   0.032453
H  -2.685209  -1.304973  -0.771363
H  -2.743904  -1.276926   0.984845
C  -0.149419  -0.685261   0.007460
H  -1.375484   0.835159   0.889474
H  -1.362412   0.824063  -0.850848
H  -0.138943  -1.195393   0.842669
H   0.793403  -0.060408   0.122788
H  -0.149259  -1.496960  -0.952905
