14
butane_opt
C  -3.958636   0.265087   0.042025
C  -2.704128  -0.617136  -0.008321
H  -4.864905  -0.319535   0.208873
H  -4.031471   0.916397  -0.852579
H  -3.884034   0.920400   0.888317
C  -1.402171   0.181740  -0.013122
H  -2.725296  -1.310301  -0.865538
H  -2.665544  -1.237472   0.879288
C  -0.154258  -0.688447   0.065725
H  -1.424796   0.870378   0.807608
H  -1.335299   0.775209  -0.878780
H  -0.117795  -1.356971   0.984598
H   0.757390  -0.084945   0.024316
H  -0.107883  -1.335724  -0.790400
