butane_opt
 OpenBabel08242015413D

 14 13  0  0  0  0  0  0  0  0999 V2000
   -3.9549    0.2795    0.0264 C   0  0  0  0  0  0  0  0  0  0  0  0
   -2.7026   -0.6403    0.0351 C   0  0  0  0  0  0  0  0  0  0  0  0
   -4.8303   -0.2782    0.0981 H   0  0  0  0  0  0  0  0  0  0  0  0
   -4.0085    1.0023   -0.9438 H   0  0  0  0  0  0  0  0  0  0  0  0
   -4.0037    0.8475    0.7987 H   0  0  0  0  0  0  0  0  0  0  0  0
   -1.3824    0.1827    0.0158 C   0  0  0  0  0  0  0  0  0  0  0  0
   -2.7361   -1.3413   -0.8472 H   0  0  0  0  0  0  0  0  0  0  0  0
   -2.7204   -1.2335    0.9045 H   0  0  0  0  0  0  0  0  0  0  0  0
   -0.1619   -0.6915    0.0312 C   0  0  0  0  0  0  0  0  0  0  0  0
   -1.4085    0.8508    0.8592 H   0  0  0  0  0  0  0  0  0  0  0  0
   -1.3844    0.7974   -0.8328 H   0  0  0  0  0  0  0  0  0  0  0  0
   -0.1611   -1.2437    0.9112 H   0  0  0  0  0  0  0  0  0  0  0  0
    0.7772   -0.0592    0.0158 H   0  0  0  0  0  0  0  0  0  0  0  0
   -0.1326   -1.3700   -0.8436 H   0  0  0  0  0  0  0  0  0  0  0  0
  1  2  1  0  0  0  0
  1  3  1  0  0  0  0
  1  5  1  0  0  0  0
  2  8  1  0  0  0  0
  4  1  1  0  0  0  0
  6  9  1  0  0  0  0
  6  2  1  0  0  0  0
  6 10  1  0  0  0  0
  7  2  1  0  0  0  0
  9 12  1  0  0  0  0
 11  6  1  0  0  0  0
 13  9  1  0  0  0  0
 14  9  1  0  0  0  0
M  END
$$$$
