butane_opt
 OpenBabel08242015413D

 14 13  0  0  0  0  0  0  0  0999 V2000
   -3.9685    0.2789    0.0022 C   0  0  0  0  0  0  0  0  0  0  0  0
   -2.6947   -0.6371    0.0566 C   0  0  0  0  0  0  0  0  0  0  0  0
   -4.8609   -0.3065   -0.0061 H   0  0  0  0  0  0  0  0  0  0  0  0
   -3.9285    0.9306   -0.9435 H   0  0  0  0  0  0  0  0  0  0  0  0
   -4.0430    0.9119    0.8527 H   0  0  0  0  0  0  0  0  0  0  0  0
   -1.3879    0.1773    0.0442 C   0  0  0  0  0  0  0  0  0  0  0  0
   -2.6611   -1.3287   -0.7913 H   0  0  0  0  0  0  0  0  0  0  0  0
   -2.7165   -1.2216    0.9109 H   0  0  0  0  0  0  0  0  0  0  0  0
   -0.1602   -0.6823    0.0071 C   0  0  0  0  0  0  0  0  0  0  0  0
   -1.3390    0.8694    0.9067 H   0  0  0  0  0  0  0  0  0  0  0  0
   -1.4034    0.7821   -0.8395 H   0  0  0  0  0  0  0  0  0  0  0  0
   -0.0868   -1.3574    0.9546 H   0  0  0  0  0  0  0  0  0  0  0  0
    0.7603   -0.0758   -0.0986 H   0  0  0  0  0  0  0  0  0  0  0  0
   -0.2155   -1.3096   -0.8189 H   0  0  0  0  0  0  0  0  0  0  0  0
  1  2  1  0  0  0  0
  1  5  1  0  0  0  0
  2  8  1  0  0  0  0
  3  1  1  0  0  0  0
  4  1  1  0  0  0  0
  6  2  1  0  0  0  0
  6 10  1  0  0  0  0
  7  2  1  0  0  0  0
  9  6  1  0  0  0  0
  9 12  1  0  0  0  0
 11  6  1  0  0  0  0
 13  9  1  0  0  0  0
 14  9  1  0  0  0  0
M  END
$$$$
