14
butane_opt
C  -3.957325   0.276548  -0.016744
C  -2.702599  -0.635204   0.084823
H  -4.847911  -0.316620  -0.103015
H  -3.921060   0.848062  -0.903618
H  -4.071616   0.997976   0.857745
C  -1.384611   0.184231   0.039435
H  -2.666835  -1.264054  -0.729612
H  -2.707217  -1.284494   0.996561
C  -0.163523  -0.687247  -0.000942
H  -1.286116   0.892278   0.921602
H  -1.435450   0.764988  -0.820973
H  -0.147685  -1.305713   0.905310
H   0.741748  -0.109654  -0.071347
H  -0.180745  -1.357696  -0.886136
