14
butane_opt
C  -3.933709   0.260207  -0.010485
C  -2.704859  -0.606829   0.049370
H  -4.870108  -0.346047   0.215662
H  -4.015450   0.989269  -0.959959
H  -3.911286   0.798169   0.778680
C  -1.408343   0.194044   0.041307
H  -2.698495  -1.272881  -0.816558
H  -2.722010  -1.236858   0.960927
C  -0.157426  -0.707609   0.012447
H  -1.362401   0.885752   0.909985
H  -1.443853   0.769171  -0.805653
H  -0.159019  -1.247625   0.876544
H   0.786631  -0.086673   0.042611
H  -0.166523  -1.402460  -0.886314
