butane_opt
 OpenBabel08242015413D

 14 13  0  0  0  0  0  0  0  0999 V2000
   -3.9327    0.2761    0.0408 C   0  0  0  0  0  0  0  0  0  0  0  0
   -2.6960   -0.6317    0.0118 C   0  0  0  0  0  0  0  0  0  0  0  0
   -4.8088   -0.3231   -0.0014 H   0  0  0  0  0  0  0  0  0  0  0  0
   -4.0082    0.9012   -0.8562 H   0  0  0  0  0  0  0  0  0  0  0  0
   -3.9863    0.9587    0.8927 H   0  0  0  0  0  0  0  0  0  0  0  0
   -1.3985    0.1776    0.0077 C   0  0  0  0  0  0  0  0  0  0  0  0
   -2.7258   -1.3609   -0.8773 H   0  0  0  0  0  0  0  0  0  0  0  0
   -2.6509   -1.1990    0.8826 H   0  0  0  0  0  0  0  0  0  0  0  0
   -0.1773   -0.6906    0.0443 C   0  0  0  0  0  0  0  0  0  0  0  0
   -1.4053    0.8305    0.8445 H   0  0  0  0  0  0  0  0  0  0  0  0
   -1.3451    0.8235   -0.8922 H   0  0  0  0  0  0  0  0  0  0  0  0
   -0.1511   -1.3738    1.0026 H   0  0  0  0  0  0  0  0  0  0  0  0
    0.7491   -0.0742   -0.0907 H   0  0  0  0  0  0  0  0  0  0  0  0
   -0.2298   -1.2262   -0.7177 H   0  0  0  0  0  0  0  0  0  0  0  0
  1  5  1  0  0  0  0
  2  1  1  0  0  0  0
  2  8  1  0  0  0  0
  3  1  1  0  0  0  0
  4  1  1  0  0  0  0
  6  2  1  0  0  0  0
  6  9  1  0  0  0  0
  6 10  1  0  0  0  0
  7  2  1  0  0  0  0
  9 12  1  0  0  0  0
 11  6  1  0  0  0  0
 13  9  1  0  0  0  0
 14  9  1  0  0  0  0
M  END
$$$$
