butane_opt
 OpenBabel08242015413D

 14 13  0  0  0  0  0  0  0  0999 V2000
   -3.9323    0.2614    0.0505 C   0  0  0  0  0  0  0  0  0  0  0  0
   -2.6974   -0.6118    0.0120 C   0  0  0  0  0  0  0  0  0  0  0  0
   -4.8631   -0.3652    0.0367 H   0  0  0  0  0  0  0  0  0  0  0  0
   -3.9514    0.8161   -0.8104 H   0  0  0  0  0  0  0  0  0  0  0  0
   -3.9060    0.9540    0.9335 H   0  0  0  0  0  0  0  0  0  0  0  0
   -1.4139    0.1883   -0.0408 C   0  0  0  0  0  0  0  0  0  0  0  0
   -2.7497   -1.2775   -0.8482 H   0  0  0  0  0  0  0  0  0  0  0  0
   -2.6550   -1.2525    0.8974 H   0  0  0  0  0  0  0  0  0  0  0  0
   -0.1621   -0.6941    0.0680 C   0  0  0  0  0  0  0  0  0  0  0  0
   -1.4166    0.8999    0.8275 H   0  0  0  0  0  0  0  0  0  0  0  0
   -1.4131    0.8607   -0.9478 H   0  0  0  0  0  0  0  0  0  0  0  0
   -0.1924   -1.2906    0.9533 H   0  0  0  0  0  0  0  0  0  0  0  0
    0.7024   -0.1467    0.1045 H   0  0  0  0  0  0  0  0  0  0  0  0
   -0.1062   -1.4077   -0.7829 H   0  0  0  0  0  0  0  0  0  0  0  0
  1  5  1  0  0  0  0
  2  1  1  0  0  0  0
  2  8  1  0  0  0  0
  3  1  1  0  0  0  0
  4  1  1  0  0  0  0
  6  2  1  0  0  0  0
  6  9  1  0  0  0  0
  6 10  1  0  0  0  0
  7  2  1  0  0  0  0
  9 13  1  0  0  0  0
  9 12  1  0  0  0  0
 11  6  1  0  0  0  0
 14  9  1  0  0  0  0
M  END
$$$$
