14
butane_opt
C  -3.939667   0.269505   0.044684
C  -2.700070  -0.624948  -0.000615
H  -4.863221  -0.326760   0.128627
H  -4.028049   0.934653  -0.849169
H  -3.911084   0.933632   0.884706
C  -1.410212   0.176954  -0.014713
H  -2.735447  -1.251464  -0.830215
H  -2.681041  -1.254939   0.887510
C  -0.155547  -0.691858   0.058894
H  -1.393650   0.838357   0.843422
H  -1.363080   0.817211  -0.915557
H  -0.231882  -1.272490   0.955607
H   0.789494  -0.060448   0.074418
H  -0.138537  -1.387522  -0.808166
