14
butane_opt
C  -3.958854   0.251807  -0.015573
C  -2.711038  -0.598617   0.076448
H  -4.859897  -0.348679   0.007747
H  -3.887107   0.886966  -0.928231
H  -4.011278   0.898413   0.820375
C  -1.401451   0.190815   0.048726
H  -2.675094  -1.298661  -0.784441
H  -2.735266  -1.233079   0.969439
C  -0.146997  -0.703806  -0.000137
H  -1.325555   0.895291   0.925695
H  -1.458818   0.859106  -0.834388
H  -0.069452  -1.312379   0.872776
H   0.748302  -0.133681  -0.042927
H  -0.126748  -1.371973  -0.874917
