14
butane_opt
C  -3.932589   0.260550   0.001525
C  -2.689592  -0.619588   0.052615
H  -4.810403  -0.277275  -0.042702
H  -4.002180   0.855600  -0.874260
H  -3.972911   0.984292   0.904906
C  -1.408696   0.181306   0.030569
H  -2.682399  -1.259814  -0.787794
H  -2.704442  -1.285209   0.954609
C  -0.178449  -0.693322   0.016726
H  -1.373664   0.842965   0.884603
H  -1.427864   0.788505  -0.871675
H  -0.132576  -1.309407   0.908725
H   0.758384  -0.068202  -0.032499
H  -0.165298  -1.281390  -0.815161
