butane_opt
 OpenBabel08242015413D

 14 13  0  0  0  0  0  0  0  0999 V2000
   -3.9584    0.2793   -0.0075 C   0  0  0  0  0  0  0  0  0  0  0  0
   -2.6949   -0.6357    0.0449 C   0  0  0  0  0  0  0  0  0  0  0  0
   -4.8432   -0.2950    0.1774 H   0  0  0  0  0  0  0  0  0  0  0  0
   -4.0236    1.0013   -0.9544 H   0  0  0  0  0  0  0  0  0  0  0  0
   -3.9342    0.8392    0.7728 H   0  0  0  0  0  0  0  0  0  0  0  0
   -1.3911    0.1705    0.0464 C   0  0  0  0  0  0  0  0  0  0  0  0
   -2.6588   -1.2515   -0.7533 H   0  0  0  0  0  0  0  0  0  0  0  0
   -2.7812   -1.2736    0.9570 H   0  0  0  0  0  0  0  0  0  0  0  0
   -0.1629   -0.6802    0.0061 C   0  0  0  0  0  0  0  0  0  0  0  0
   -1.3304    0.8995    0.9371 H   0  0  0  0  0  0  0  0  0  0  0  0
   -1.3855    0.7372   -0.8218 H   0  0  0  0  0  0  0  0  0  0  0  0
   -0.1400   -1.2455    0.8957 H   0  0  0  0  0  0  0  0  0  0  0  0
    0.7107   -0.0947    0.0096 H   0  0  0  0  0  0  0  0  0  0  0  0
   -0.1579   -1.3952   -0.8702 H   0  0  0  0  0  0  0  0  0  0  0  0
  1  2  1  0  0  0  0
  1  3  1  0  0  0  0
  1  5  1  0  0  0  0
  2  6  1  0  0  0  0
  2  8  1  0  0  0  0
  4  1  1  0  0  0  0
  6 10  1  0  0  0  0
  7  2  1  0  0  0  0
  9 13  1  0  0  0  0
  9  6  1  0  0  0  0
  9 12  1  0  0  0  0
 11  6  1  0  0  0  0
 14  9  1  0  0  0  0
M  END
$$$$
