14
butane_opt
C  -3.936171   0.251673   0.040670
C  -2.702444  -0.590339   0.014917
H  -4.891701  -0.393611  -0.054040
H  -3.917678   0.724188  -0.754563
H  -3.997442   1.031196   0.991611
C  -1.412116   0.193257  -0.016799
H  -2.725698  -1.282911  -0.856365
H  -2.656660  -1.227055   0.918498
C  -0.161385  -0.702344   0.060501
H  -1.412121   0.801720   0.794833
H  -1.375951   0.909112  -0.967800
H  -0.113949  -1.409945   0.992602
H   0.740821  -0.099259  -0.011672
H  -0.118793  -1.363566  -0.787003
