butane_opt
 OpenBabel08242015413D

 14 13  0  0  0  0  0  0  0  0999 V2000
   -3.9405    0.2788    0.0141 C   0  0  0  0  0  0  0  0  0  0  0  0
   -2.6954   -0.6249    0.0321 C   0  0  0  0  0  0  0  0  0  0  0  0
   -4.8556   -0.2873    0.1319 H   0  0  0  0  0  0  0  0  0  0  0  0
   -3.9932    0.9591   -0.9301 H   0  0  0  0  0  0  0  0  0  0  0  0
   -3.9546    0.8640    0.8303 H   0  0  0  0  0  0  0  0  0  0  0  0
   -1.4032    0.1610    0.0205 C   0  0  0  0  0  0  0  0  0  0  0  0
   -2.7551   -1.3090   -0.8185 H   0  0  0  0  0  0  0  0  0  0  0  0
   -2.7138   -1.2579    0.9200 H   0  0  0  0  0  0  0  0  0  0  0  0
   -0.1597   -0.6797    0.0258 C   0  0  0  0  0  0  0  0  0  0  0  0
   -1.4070    0.9265    0.9178 H   0  0  0  0  0  0  0  0  0  0  0  0
   -1.3504    0.7439   -0.8416 H   0  0  0  0  0  0  0  0  0  0  0  0
   -0.1874   -1.3066    0.9531 H   0  0  0  0  0  0  0  0  0  0  0  0
    0.7618   -0.0834   -0.0373 H   0  0  0  0  0  0  0  0  0  0  0  0
   -0.1869   -1.3371   -0.8088 H   0  0  0  0  0  0  0  0  0  0  0  0
  1  2  1  0  0  0  0
  1  3  1  0  0  0  0
  1  5  1  0  0  0  0
  2  8  1  0  0  0  0
  4  1  1  0  0  0  0
  6  9  1  0  0  0  0
  6  2  1  0  0  0  0
  6 10  1  0  0  0  0
  7  2  1  0  0  0  0
  9 12  1  0  0  0  0
 11  6  1  0  0  0  0
 13  9  1  0  0  0  0
 14  9  1  0  0  0  0
M  END
$$$$
