14
butane_opt
C  -3.940741   0.259149   0.054843
C  -2.710896  -0.608812   0.000306
H  -4.863299  -0.333711   0.076377
H  -4.022046   0.838277  -0.801792
H  -3.955750   0.941946   0.938006
C  -1.404754   0.192638  -0.039422
H  -2.807189  -1.283963  -0.823850
H  -2.742458  -1.237553   0.894183
C  -0.143156  -0.705705   0.063299
H  -1.379879   0.881427   0.818568
H  -1.396735   0.863713  -0.961030
H  -0.185301  -1.300552   0.976196
H   0.747831  -0.127517   0.177746
H  -0.022211  -1.369961  -0.797990
