butane_opt
 OpenBabel08242015413D

 14 13  0  0  0  0  0  0  0  0999 V2000
   -3.9718    0.2704    0.0330 C   0  0  0  0  0  0  0  0  0  0  0  0
   -2.6992   -0.6228    0.0178 C   0  0  0  0  0  0  0  0  0  0  0  0
   -4.8351   -0.2925    0.0175 H   0  0  0  0  0  0  0  0  0  0  0  0
   -4.0198    0.8660   -0.8602 H   0  0  0  0  0  0  0  0  0  0  0  0
   -3.9614    0.9916    0.9242 H   0  0  0  0  0  0  0  0  0  0  0  0
   -1.3904    0.1715    0.0065 C   0  0  0  0  0  0  0  0  0  0  0  0
   -2.6748   -1.3590   -0.8656 H   0  0  0  0  0  0  0  0  0  0  0  0
   -2.6747   -1.2122    0.8669 H   0  0  0  0  0  0  0  0  0  0  0  0
   -0.1560   -0.6805    0.0506 C   0  0  0  0  0  0  0  0  0  0  0  0
   -1.4188    0.7990    0.8235 H   0  0  0  0  0  0  0  0  0  0  0  0
   -1.3209    0.8103   -0.8748 H   0  0  0  0  0  0  0  0  0  0  0  0
   -0.0701   -1.3932    0.9875 H   0  0  0  0  0  0  0  0  0  0  0  0
    0.7624   -0.0730   -0.1190 H   0  0  0  0  0  0  0  0  0  0  0  0
   -0.2067   -1.2578   -0.7469 H   0  0  0  0  0  0  0  0  0  0  0  0
  1  5  1  0  0  0  0
  2  1  1  0  0  0  0
  2  8  1  0  0  0  0
  3  1  1  0  0  0  0
  4  1  1  0  0  0  0
  6  2  1  0  0  0  0
  6  9  1  0  0  0  0
  6 10  1  0  0  0  0
  7  2  1  0  0  0  0
  9 12  1  0  0  0  0
 11  6  1  0  0  0  0
 13  9  1  0  0  0  0
 14  9  1  0  0  0  0
M  END
$$$$
