14
butane_opt
C  -3.932416   0.257826   0.044445
C  -2.703025  -0.610237   0.008341
H  -4.873247  -0.353184   0.178316
H  -4.012295   0.957430  -0.916376
H  -3.887513   0.861025   0.859015
C  -1.411216   0.199544  -0.009587
H  -2.807440  -1.364099  -0.923592
H  -2.665071  -1.205859   0.845131
C  -0.157801  -0.698842   0.057835
H  -1.447741   0.867803   0.821307
H  -1.407948   0.828897  -0.888262
H  -0.108532  -1.359325   0.962566
H   0.755862  -0.108670   0.067796
H  -0.116931  -1.369183  -0.782894
