14
butane_opt
C  -3.959573   0.271323  -0.006430
C  -2.701179  -0.626076   0.059440
H  -4.854038  -0.286769  -0.002061
H  -3.959412   0.872257  -0.892620
H  -4.080022   0.934356   0.853739
C  -1.392249   0.168814   0.040838
H  -2.698468  -1.254919  -0.756772
H  -2.725365  -1.255636   0.985150
C  -0.146916  -0.684899   0.013606
H  -1.386201   0.832894   0.882451
H  -1.430278   0.834024  -0.882079
H  -0.080508  -1.241970   0.860702
H   0.780009  -0.076943  -0.017162
H  -0.192976  -1.379403  -0.879949
