14
butane_opt
C  -3.946810   0.260869  -0.022577
C  -2.710272  -0.608463   0.086308
H  -4.909730  -0.368035  -0.071305
H  -3.902460   0.837373  -0.902141
H  -4.052057   0.939623   0.857513
C  -1.399822   0.192856   0.047070
H  -2.713742  -1.239457  -0.719970
H  -2.719599  -1.272606   1.006707
C  -0.147384  -0.697338  -0.013608
H  -1.351768   0.891237   0.919119
H  -1.464303   0.777816  -0.836228
H  -0.067261  -1.295758   0.865262
H   0.719918  -0.167791   0.016237
H  -0.104766  -1.356779  -0.856335
