butane_opt
 OpenBabel08242015413D

 14 13  0  0  0  0  0  0  0  0999 V2000
   -3.9394    0.2760    0.0102 C   0  0  0  0  0  0  0  0  0  0  0  0
   -2.6984   -0.6294    0.0431 C   0  0  0  0  0  0  0  0  0  0  0  0
   -4.8386   -0.3132   -0.0271 H   0  0  0  0  0  0  0  0  0  0  0  0
   -3.9452    0.8133   -0.8480 H   0  0  0  0  0  0  0  0  0  0  0  0
   -3.9991    1.0575    0.9338 H   0  0  0  0  0  0  0  0  0  0  0  0
   -1.3994    0.1636    0.0254 C   0  0  0  0  0  0  0  0  0  0  0  0
   -2.7100   -1.2881   -0.8069 H   0  0  0  0  0  0  0  0  0  0  0  0
   -2.7105   -1.2515    0.9283 H   0  0  0  0  0  0  0  0  0  0  0  0
   -0.1644   -0.6801    0.0264 C   0  0  0  0  0  0  0  0  0  0  0  0
   -1.3879    0.8127    0.8440 H   0  0  0  0  0  0  0  0  0  0  0  0
   -1.4173    0.8615   -0.9325 H   0  0  0  0  0  0  0  0  0  0  0  0
   -0.1491   -1.3573    0.9594 H   0  0  0  0  0  0  0  0  0  0  0  0
    0.7500   -0.0493   -0.0382 H   0  0  0  0  0  0  0  0  0  0  0  0
   -0.2036   -1.3192   -0.8142 H   0  0  0  0  0  0  0  0  0  0  0  0
  1  2  1  0  0  0  0
  1  5  1  0  0  0  0
  2  8  1  0  0  0  0
  3  1  1  0  0  0  0
  4  1  1  0  0  0  0
  6  9  1  0  0  0  0
  6  2  1  0  0  0  0
  6 10  1  0  0  0  0
  7  2  1  0  0  0  0
  9 12  1  0  0  0  0
 11  6  1  0  0  0  0
 13  9  1  0  0  0  0
 14  9  1  0  0  0  0
M  END
$$$$
