14
butane_opt
C  -3.950837   0.273982   0.031052
C  -2.697502  -0.625193   0.014851
H  -4.826620  -0.282783  -0.001325
H  -4.023758   0.805181  -0.781509
H  -3.970715   1.044348   0.952067
C  -1.399435   0.164496  -0.001413
H  -2.734517  -1.359727  -0.852545
H  -2.699220  -1.206785   0.867780
C  -0.158967  -0.682798   0.056289
H  -1.354005   0.820398   0.838236
H  -1.353716   0.861617  -0.947962
H  -0.146641  -1.379825   1.018922
H   0.772946  -0.089981  -0.121134
H  -0.209069  -1.244381  -0.726279
