14
butane_opt
C  -3.966122   0.272225   0.026054
C  -2.694403  -0.624857   0.040547
H  -4.879817  -0.326537  -0.085390
H  -3.920797   0.783700  -0.805905
H  -4.028226   1.061051   0.973035
C  -1.399911   0.186716  -0.004630
H  -2.714249  -1.331811  -0.853213
H  -2.686440  -1.262637   0.932167
C  -0.157792  -0.689512   0.044279
H  -1.388548   0.793553   0.799896
H  -1.315769   0.840425  -0.930353
H  -0.071329  -1.345488   0.960913
H   0.783516  -0.070100  -0.027675
H  -0.186082  -1.341884  -0.782574
