butane_opt
 OpenBabel08242015413D

 14 13  0  0  0  0  0  0  0  0999 V2000
   -3.9413    0.2563    0.0418 C   0  0  0  0  0  0  0  0  0  0  0  0
   -2.7096   -0.6082    0.0244 C   0  0  0  0  0  0  0  0  0  0  0  0
   -4.8525   -0.3192    0.0517 H   0  0  0  0  0  0  0  0  0  0  0  0
   -4.0210    0.8595   -0.8450 H   0  0  0  0  0  0  0  0  0  0  0  0
   -3.9910    0.9298    0.9212 H   0  0  0  0  0  0  0  0  0  0  0  0
   -1.4052    0.1898   -0.0303 C   0  0  0  0  0  0  0  0  0  0  0  0
   -2.7025   -1.2880   -0.8201 H   0  0  0  0  0  0  0  0  0  0  0  0
   -2.7082   -1.2288    0.9373 H   0  0  0  0  0  0  0  0  0  0  0  0
   -0.1462   -0.7008    0.0476 C   0  0  0  0  0  0  0  0  0  0  0  0
   -1.3951    0.8524    0.8084 H   0  0  0  0  0  0  0  0  0  0  0  0
   -1.4136    0.8136   -0.9067 H   0  0  0  0  0  0  0  0  0  0  0  0
   -0.2172   -1.2565    0.9198 H   0  0  0  0  0  0  0  0  0  0  0  0
    0.7496   -0.1008    0.1928 H   0  0  0  0  0  0  0  0  0  0  0  0
   -0.0337   -1.3858   -0.8218 H   0  0  0  0  0  0  0  0  0  0  0  0
  1  3  1  0  0  0  0
  1  5  1  0  0  0  0
  2  1  1  0  0  0  0
  2  8  1  0  0  0  0
  4  1  1  0  0  0  0
  6  2  1  0  0  0  0
  6  9  1  0  0  0  0
  6 10  1  0  0  0  0
  7  2  1  0  0  0  0
  9 13  1  0  0  0  0
  9 12  1  0  0  0  0
 11  6  1  0  0  0  0
 14  9  1  0  0  0  0
M  END
$$$$
