butane_opt
 OpenBabel08242015413D

 14 13  0  0  0  0  0  0  0  0999 V2000
   -3.9558    0.2723    0.0559 C   0  0  0  0  0  0  0  0  0  0  0  0
   -2.6953   -0.6340   -0.0021 C   0  0  0  0  0  0  0  0  0  0  0  0
   -4.8383   -0.2853    0.1325 H   0  0  0  0  0  0  0  0  0  0  0  0
   -4.0853    0.9590   -0.9073 H   0  0  0  0  0  0  0  0  0  0  0  0
   -3.9265    0.9136    0.9034 H   0  0  0  0  0  0  0  0  0  0  0  0
   -1.3926    0.1784   -0.0207 C   0  0  0  0  0  0  0  0  0  0  0  0
   -2.7766   -1.3508   -0.9089 H   0  0  0  0  0  0  0  0  0  0  0  0
   -2.6418   -1.1825    0.8337 H   0  0  0  0  0  0  0  0  0  0  0  0
   -0.1714   -0.6872    0.0691 C   0  0  0  0  0  0  0  0  0  0  0  0
   -1.3593    0.8214    0.8271 H   0  0  0  0  0  0  0  0  0  0  0  0
   -1.2977    0.8349   -0.9280 H   0  0  0  0  0  0  0  0  0  0  0  0
   -0.1499   -1.3156    0.9752 H   0  0  0  0  0  0  0  0  0  0  0  0
    0.7509   -0.0833    0.0483 H   0  0  0  0  0  0  0  0  0  0  0  0
   -0.1171   -1.3309   -0.7733 H   0  0  0  0  0  0  0  0  0  0  0  0
  1  3  1  0  0  0  0
  1  5  1  0  0  0  0
  2  1  1  0  0  0  0
  2  8  1  0  0  0  0
  4  1  1  0  0  0  0
  6  2  1  0  0  0  0
  6  9  1  0  0  0  0
  6 10  1  0  0  0  0
  7  2  1  0  0  0  0
  9 12  1  0  0  0  0
 11  6  1  0  0  0  0
 13  9  1  0  0  0  0
 14  9  1  0  0  0  0
M  END
$$$$
