butane_opt
 OpenBabel08242015413D

 14 13  0  0  0  0  0  0  0  0999 V2000
   -3.9493    0.2590    0.0223 C   0  0  0  0  0  0  0  0  0  0  0  0
   -2.7169   -0.6070    0.0181 C   0  0  0  0  0  0  0  0  0  0  0  0
   -4.8550   -0.3362    0.0732 H   0  0  0  0  0  0  0  0  0  0  0  0
   -3.9604    0.8487   -0.8405 H   0  0  0  0  0  0  0  0  0  0  0  0
   -3.9228    0.9358    0.9027 H   0  0  0  0  0  0  0  0  0  0  0  0
   -1.4032    0.2042    0.0195 C   0  0  0  0  0  0  0  0  0  0  0  0
   -2.7726   -1.3305   -0.8678 H   0  0  0  0  0  0  0  0  0  0  0  0
   -2.7362   -1.2002    0.8907 H   0  0  0  0  0  0  0  0  0  0  0  0
   -0.1373   -0.7116    0.0403 C   0  0  0  0  0  0  0  0  0  0  0  0
   -1.4043    0.7950    0.8280 H   0  0  0  0  0  0  0  0  0  0  0  0
   -1.3978    0.8587   -0.8831 H   0  0  0  0  0  0  0  0  0  0  0  0
   -0.0903   -1.3929    0.9743 H   0  0  0  0  0  0  0  0  0  0  0  0
    0.7546   -0.1007   -0.0650 H   0  0  0  0  0  0  0  0  0  0  0  0
   -0.1571   -1.2810   -0.7657 H   0  0  0  0  0  0  0  0  0  0  0  0
  1  3  1  0  0  0  0
  1  5  1  0  0  0  0
  2  6  1  0  0  0  0
  2  1  1  0  0  0  0
  2  8  1  0  0  0  0
  4  1  1  0  0  0  0
  6  9  1  0  0  0  0
  6 10  1  0  0  0  0
  7  2  1  0  0  0  0
  9 12  1  0  0  0  0
 11  6  1  0  0  0  0
 13  9  1  0  0  0  0
 14  9  1  0  0  0  0
M  END
$$$$
