14
butane_opt
C  -3.930397   0.256773   0.007747
C  -2.690991  -0.607361   0.050300
H  -4.882660  -0.371356   0.090510
H  -3.932986   0.892165  -0.886147
H  -3.962213   0.892304   0.864332
C  -1.415986   0.190677   0.012867
H  -2.704335  -1.251719  -0.774668
H  -2.734202  -1.266275   0.981049
C  -0.168854  -0.696987   0.023239
H  -1.428549   0.884747   0.838660
H  -1.372052   0.864199  -0.908559
H  -0.163415  -1.221528   0.879166
H   0.711083  -0.125057   0.145493
H  -0.074146  -1.504080  -0.932139
