14
butane_opt
C  -3.953623   0.253845  -0.022493
C  -2.696306  -0.614674   0.098705
H  -4.874514  -0.348890  -0.130088
H  -3.888455   0.820732  -0.901375
H  -3.999395   0.981329   0.894681
C  -1.403002   0.212094   0.033252
H  -2.694607  -1.240615  -0.739778
H  -2.761494  -1.271653   1.010352
C  -0.156660  -0.705515  -0.010967
H  -1.368624   0.916217   0.907180
H  -1.422443   0.766355  -0.790399
H  -0.104135  -1.320115   0.910130
H   0.721074  -0.142240  -0.029086
H  -0.109673  -1.389444  -0.874400
