butane_opt
 OpenBabel08242015413D

 14 13  0  0  0  0  0  0  0  0999 V2000
   -3.9459    0.2527   -0.0126 C   0  0  0  0  0  0  0  0  0  0  0  0
   -2.7107   -0.6001    0.0609 C   0  0  0  0  0  0  0  0  0  0  0  0
   -4.8587   -0.3238    0.0026 H   0  0  0  0  0  0  0  0  0  0  0  0
   -3.9439    0.8655   -0.9032 H   0  0  0  0  0  0  0  0  0  0  0  0
   -3.9426    0.9043    0.8401 H   0  0  0  0  0  0  0  0  0  0  0  0
   -1.4092    0.1915    0.0438 C   0  0  0  0  0  0  0  0  0  0  0  0
   -2.7632   -1.2462   -0.7841 H   0  0  0  0  0  0  0  0  0  0  0  0
   -2.7375   -1.2816    0.9745 H   0  0  0  0  0  0  0  0  0  0  0  0
   -0.1397   -0.6996    0.0148 C   0  0  0  0  0  0  0  0  0  0  0  0
   -1.4197    0.9220    0.9206 H   0  0  0  0  0  0  0  0  0  0  0  0
   -1.4325    0.8032   -0.8198 H   0  0  0  0  0  0  0  0  0  0  0  0
   -0.0391   -1.3552    0.8955 H   0  0  0  0  0  0  0  0  0  0  0  0
    0.7522   -0.1130   -0.1153 H   0  0  0  0  0  0  0  0  0  0  0  0
   -0.1787   -1.3812   -0.8610 H   0  0  0  0  0  0  0  0  0  0  0  0
  1  3  1  0  0  0  0
  1  2  1  0  0  0  0
  1  5  1  0  0  0  0
  2  8  1  0  0  0  0
  4  1  1  0  0  0  0
  6  2  1  0  0  0  0
  6 10  1  0  0  0  0
  7  2  1  0  0  0  0
  9  6  1  0  0  0  0
  9 12  1  0  0  0  0
 11  6  1  0  0  0  0
 13  9  1  0  0  0  0
 14  9  1  0  0  0  0
M  END
$$$$
