butane_opt
 OpenBabel08242015413D

 14 13  0  0  0  0  0  0  0  0999 V2000
   -3.9565    0.2559    0.0012 C   0  0  0  0  0  0  0  0  0  0  0  0
   -2.7116   -0.5997    0.0433 C   0  0  0  0  0  0  0  0  0  0  0  0
   -4.8860   -0.3524    0.1642 H   0  0  0  0  0  0  0  0  0  0  0  0
   -3.9785    0.9870   -0.9859 H   0  0  0  0  0  0  0  0  0  0  0  0
   -3.8972    0.7677    0.7466 H   0  0  0  0  0  0  0  0  0  0  0  0
   -1.3949    0.1951    0.0483 C   0  0  0  0  0  0  0  0  0  0  0  0
   -2.7304   -1.2670   -0.7659 H   0  0  0  0  0  0  0  0  0  0  0  0
   -2.7519   -1.2149    0.9225 H   0  0  0  0  0  0  0  0  0  0  0  0
   -0.1471   -0.7073    0.0123 C   0  0  0  0  0  0  0  0  0  0  0  0
   -1.4183    0.9134    0.9270 H   0  0  0  0  0  0  0  0  0  0  0  0
   -1.3561    0.8067   -0.8331 H   0  0  0  0  0  0  0  0  0  0  0  0
   -0.0757   -1.2767    0.8691 H   0  0  0  0  0  0  0  0  0  0  0  0
    0.7158   -0.1416   -0.0179 H   0  0  0  0  0  0  0  0  0  0  0  0
   -0.1247   -1.4263   -0.8732 H   0  0  0  0  0  0  0  0  0  0  0  0
  1  2  1  0  0  0  0
  1  3  1  0  0  0  0
  1  5  1  0  0  0  0
  2  6  1  0  0  0  0
  2  8  1  0  0  0  0
  4  1  1  0  0  0  0
  6 10  1  0  0  0  0
  7  2  1  0  0  0  0
  9  6  1  0  0  0  0
  9 12  1  0  0  0  0
 11  6  1  0  0  0  0
 13  9  1  0  0  0  0
 14  9  1  0  0  0  0
M  END
$$$$
