butane_opt
 OpenBabel08242015413D

 14 13  0  0  0  0  0  0  0  0999 V2000
   -3.9615    0.2765   -0.0019 C   0  0  0  0  0  0  0  0  0  0  0  0
   -2.7046   -0.6237    0.0486 C   0  0  0  0  0  0  0  0  0  0  0  0
   -4.8782   -0.3020    0.1562 H   0  0  0  0  0  0  0  0  0  0  0  0
   -3.9848    0.9684   -0.9529 H   0  0  0  0  0  0  0  0  0  0  0  0
   -3.9505    0.8388    0.7809 H   0  0  0  0  0  0  0  0  0  0  0  0
   -1.3913    0.1693    0.0401 C   0  0  0  0  0  0  0  0  0  0  0  0
   -2.7144   -1.3283   -0.8150 H   0  0  0  0  0  0  0  0  0  0  0  0
   -2.7285   -1.1871    0.9143 H   0  0  0  0  0  0  0  0  0  0  0  0
   -0.1580   -0.6856    0.0137 C   0  0  0  0  0  0  0  0  0  0  0  0
   -1.3062    0.8575    0.9218 H   0  0  0  0  0  0  0  0  0  0  0  0
   -1.4124    0.7980   -0.8371 H   0  0  0  0  0  0  0  0  0  0  0  0
   -0.0896   -1.2998    0.9086 H   0  0  0  0  0  0  0  0  0  0  0  0
    0.7570   -0.0775   -0.0145 H   0  0  0  0  0  0  0  0  0  0  0  0
   -0.1438   -1.3722   -0.8318 H   0  0  0  0  0  0  0  0  0  0  0  0
  1  2  1  0  0  0  0
  1  3  1  0  0  0  0
  1  5  1  0  0  0  0
  2  8  1  0  0  0  0
  4  1  1  0  0  0  0
  6  2  1  0  0  0  0
  6 10  1  0  0  0  0
  7  2  1  0  0  0  0
  9  6  1  0  0  0  0
  9 12  1  0  0  0  0
 11  6  1  0  0  0  0
 13  9  1  0  0  0  0
 14  9  1  0  0  0  0
M  END
$$$$
