14
butane_opt
C  -3.950473   0.269889  -0.000518
C  -2.699199  -0.620114   0.069730
H  -4.806674  -0.307786  -0.009487
H  -3.987012   0.906615  -0.904329
H  -3.998656   0.909933   0.831965
C  -1.403774   0.165103   0.020330
H  -2.639598  -1.236304  -0.739702
H  -2.726812  -1.294062   0.982539
C  -0.154765  -0.683550   0.006965
H  -1.355564   0.889489   0.898313
H  -1.436687   0.789181  -0.844521
H  -0.225552  -1.214681   0.852164
H   0.773673  -0.071659   0.108713
H  -0.123125  -1.418729  -0.902691
