14
butane_opt
C  -3.950331   0.259978   0.030050
C  -2.696404  -0.621070   0.034369
H  -4.901791  -0.360275  -0.081267
H  -3.923571   0.745661  -0.788028
H  -4.056837   1.033935   0.977584
C  -1.402586   0.206772  -0.018626
H  -2.772351  -1.268331  -0.798901
H  -2.691308  -1.220562   0.902211
C  -0.150833  -0.703771   0.049176
H  -1.396867   0.873877   0.832720
H  -1.386551   0.847496  -0.897723
H  -0.106111  -1.384465   0.991377
H   0.726052  -0.121091  -0.036845
H  -0.103284  -1.335899  -0.787626
