14
butane_opt
C  -3.952624   0.270593   0.012610
C  -2.699891  -0.628865   0.044356
H  -4.830706  -0.284974  -0.031726
H  -3.989396   0.925659  -0.893208
H  -4.023780   0.923572   0.845791
C  -1.394663   0.175219   0.018722
H  -2.721766  -1.285640  -0.796539
H  -2.681055  -1.291454   0.963244
C  -0.165264  -0.686061   0.022382
H  -1.340972   0.927089   0.927753
H  -1.415622   0.782126  -0.820262
H  -0.102140  -1.346352   0.935047
H   0.782333  -0.050836  -0.049373
H  -0.157947  -1.336517  -0.823388
