butane_opt
 OpenBabel08242015413D

 14 13  0  0  0  0  0  0  0  0999 V2000
   -3.9157    0.2551   -0.0096 C   0  0  0  0  0  0  0  0  0  0  0  0
   -2.7028   -0.6056    0.0689 C   0  0  0  0  0  0  0  0  0  0  0  0
   -4.8710   -0.3532   -0.0247 H   0  0  0  0  0  0  0  0  0  0  0  0
   -3.9495    0.9133   -0.9639 H   0  0  0  0  0  0  0  0  0  0  0  0
   -3.9741    0.8939    0.8049 H   0  0  0  0  0  0  0  0  0  0  0  0
   -1.4097    0.1964    0.0582 C   0  0  0  0  0  0  0  0  0  0  0  0
   -2.6813   -1.3002   -0.7667 H   0  0  0  0  0  0  0  0  0  0  0  0
   -2.8045   -1.2005    0.9335 H   0  0  0  0  0  0  0  0  0  0  0  0
   -0.1667   -0.7037   -0.0026 C   0  0  0  0  0  0  0  0  0  0  0  0
   -1.3733    0.8941    0.9292 H   0  0  0  0  0  0  0  0  0  0  0  0
   -1.4672    0.7906   -0.7970 H   0  0  0  0  0  0  0  0  0  0  0  0
   -0.0675   -1.3810    0.9279 H   0  0  0  0  0  0  0  0  0  0  0  0
    0.7200   -0.1216   -0.1396 H   0  0  0  0  0  0  0  0  0  0  0  0
   -0.2092   -1.3167   -0.8385 H   0  0  0  0  0  0  0  0  0  0  0  0
  1  2  1  0  0  0  0
  1  5  1  0  0  0  0
  2  8  1  0  0  0  0
  3  1  1  0  0  0  0
  4  1  1  0  0  0  0
  6  2  1  0  0  0  0
  6 10  1  0  0  0  0
  7  2  1  0  0  0  0
  9  6  1  0  0  0  0
  9 12  1  0  0  0  0
 11  6  1  0  0  0  0
 13  9  1  0  0  0  0
 14  9  1  0  0  0  0
M  END
$$$$
