butane_opt
 OpenBabel08242015413D

 14 13  0  0  0  0  0  0  0  0999 V2000
   -3.9372    0.2587    0.0415 C   0  0  0  0  0  0  0  0  0  0  0  0
   -2.7018   -0.6034   -0.0069 C   0  0  0  0  0  0  0  0  0  0  0  0
   -4.8911   -0.3605    0.1696 H   0  0  0  0  0  0  0  0  0  0  0  0
   -4.0180    0.8581   -0.8598 H   0  0  0  0  0  0  0  0  0  0  0  0
   -3.8743    0.8640    0.8694 H   0  0  0  0  0  0  0  0  0  0  0  0
   -1.4028    0.1953   -0.0087 C   0  0  0  0  0  0  0  0  0  0  0  0
   -2.7348   -1.2623   -0.8634 H   0  0  0  0  0  0  0  0  0  0  0  0
   -2.6855   -1.2109    0.8757 H   0  0  0  0  0  0  0  0  0  0  0  0
   -0.1618   -0.7077    0.0669 C   0  0  0  0  0  0  0  0  0  0  0  0
   -1.4478    0.8878    0.8681 H   0  0  0  0  0  0  0  0  0  0  0  0
   -1.4022    0.8277   -0.8897 H   0  0  0  0  0  0  0  0  0  0  0  0
   -0.1153   -1.3442    0.9749 H   0  0  0  0  0  0  0  0  0  0  0  0
    0.7490   -0.1138   -0.0459 H   0  0  0  0  0  0  0  0  0  0  0  0
   -0.1539   -1.3394   -0.7758 H   0  0  0  0  0  0  0  0  0  0  0  0
  1  3  1  0  0  0  0
  1  5  1  0  0  0  0
  2  1  1  0  0  0  0
  2  8  1  0  0  0  0
  4  1  1  0  0  0  0
  6  2  1  0  0  0  0
  6  9  1  0  0  0  0
  6 10  1  0  0  0  0
  7  2  1  0  0  0  0
  9 12  1  0  0  0  0
 11  6  1  0  0  0  0
 13  9  1  0  0  0  0
 14  9  1  0  0  0  0
M  END
$$$$
