butane_opt
 OpenBabel08242015413D

 14 13  0  0  0  0  0  0  0  0999 V2000
   -3.9475    0.2796   -0.0112 C   0  0  0  0  0  0  0  0  0  0  0  0
   -2.6855   -0.6283    0.0754 C   0  0  0  0  0  0  0  0  0  0  0  0
   -4.8759   -0.3377    0.0553 H   0  0  0  0  0  0  0  0  0  0  0  0
   -3.9350    0.9372   -0.9563 H   0  0  0  0  0  0  0  0  0  0  0  0
   -3.9699    0.8876    0.7922 H   0  0  0  0  0  0  0  0  0  0  0  0
   -1.4026    0.1725    0.0398 C   0  0  0  0  0  0  0  0  0  0  0  0
   -2.6977   -1.2939   -0.7766 H   0  0  0  0  0  0  0  0  0  0  0  0
   -2.6784   -1.2602    1.0016 H   0  0  0  0  0  0  0  0  0  0  0  0
   -0.1714   -0.6788   -0.0004 C   0  0  0  0  0  0  0  0  0  0  0  0
   -1.3476    0.8308    0.8812 H   0  0  0  0  0  0  0  0  0  0  0  0
   -1.4410    0.7684   -0.8241 H   0  0  0  0  0  0  0  0  0  0  0  0
   -0.2310   -1.2168    0.8493 H   0  0  0  0  0  0  0  0  0  0  0  0
    0.7535   -0.0878    0.0760 H   0  0  0  0  0  0  0  0  0  0  0  0
   -0.1197   -1.4371   -0.9195 H   0  0  0  0  0  0  0  0  0  0  0  0
  1  3  1  0  0  0  0
  1  2  1  0  0  0  0
  1  5  1  0  0  0  0
  2  8  1  0  0  0  0
  4  1  1  0  0  0  0
  6  2  1  0  0  0  0
  6 10  1  0  0  0  0
  7  2  1  0  0  0  0
  9  6  1  0  0  0  0
  9 13  1  0  0  0  0
  9 12  1  0  0  0  0
 11  6  1  0  0  0  0
 14  9  1  0  0  0  0
M  END
$$$$
