butane_opt
 OpenBabel08242015413D

 14 13  0  0  0  0  0  0  0  0999 V2000
   -3.9293    0.2596    0.0412 C   0  0  0  0  0  0  0  0  0  0  0  0
   -2.7055   -0.6072    0.0094 C   0  0  0  0  0  0  0  0  0  0  0  0
   -4.8766   -0.3746    0.0515 H   0  0  0  0  0  0  0  0  0  0  0  0
   -3.9081    0.8457   -0.8394 H   0  0  0  0  0  0  0  0  0  0  0  0
   -3.9443    0.9561    0.9397 H   0  0  0  0  0  0  0  0  0  0  0  0
   -1.4076    0.2029   -0.0044 C   0  0  0  0  0  0  0  0  0  0  0  0
   -2.7654   -1.3588   -0.8855 H   0  0  0  0  0  0  0  0  0  0  0  0
   -2.6545   -1.2215    0.8752 H   0  0  0  0  0  0  0  0  0  0  0  0
   -0.1732   -0.7050    0.0568 C   0  0  0  0  0  0  0  0  0  0  0  0
   -1.4169    0.8515    0.7951 H   0  0  0  0  0  0  0  0  0  0  0  0
   -1.3831    0.8576   -0.9255 H   0  0  0  0  0  0  0  0  0  0  0  0
   -0.0844   -1.4012    1.0120 H   0  0  0  0  0  0  0  0  0  0  0  0
    0.7249   -0.1209   -0.0295 H   0  0  0  0  0  0  0  0  0  0  0  0
   -0.1273   -1.3107   -0.7782 H   0  0  0  0  0  0  0  0  0  0  0  0
  1  3  1  0  0  0  0
  1  5  1  0  0  0  0
  2  1  1  0  0  0  0
  2  8  1  0  0  0  0
  4  1  1  0  0  0  0
  6  2  1  0  0  0  0
  6  9  1  0  0  0  0
  6 10  1  0  0  0  0
  7  2  1  0  0  0  0
  9 12  1  0  0  0  0
 11  6  1  0  0  0  0
 13  9  1  0  0  0  0
 14  9  1  0  0  0  0
M  END
$$$$
