14
butane_opt
C  -3.945271   0.254385  -0.002897
C  -2.720877  -0.605702   0.045089
H  -4.864388  -0.354533   0.061853
H  -3.967122   0.860465  -0.895296
H  -3.963838   0.966735   0.872513
C  -1.403743   0.194601   0.033226
H  -2.728907  -1.286686  -0.812736
H  -2.727007  -1.216484   0.924144
C  -0.144896  -0.706632   0.017309
H  -1.359602   0.924569   0.953668
H  -1.426677   0.793238  -0.835966
H  -0.040090  -1.429928   0.999789
H   0.763850  -0.105398  -0.132507
H  -0.134131  -1.263939  -0.793698
