butane_opt
 OpenBabel08242015413D

 14 13  0  0  0  0  0  0  0  0999 V2000
   -3.9552    0.2704    0.0033 C   0  0  0  0  0  0  0  0  0  0  0  0
   -2.7017   -0.6230    0.0327 C   0  0  0  0  0  0  0  0  0  0  0  0
   -4.8618   -0.3076    0.1697 H   0  0  0  0  0  0  0  0  0  0  0  0
   -4.1074    1.0205   -0.9369 H   0  0  0  0  0  0  0  0  0  0  0  0
   -3.9113    0.8647    0.8222 H   0  0  0  0  0  0  0  0  0  0  0  0
   -1.3829    0.1718    0.0302 C   0  0  0  0  0  0  0  0  0  0  0  0
   -2.7261   -1.2761   -0.7939 H   0  0  0  0  0  0  0  0  0  0  0  0
   -2.7294   -1.2632    0.9351 H   0  0  0  0  0  0  0  0  0  0  0  0
   -0.1604   -0.6894    0.0228 C   0  0  0  0  0  0  0  0  0  0  0  0
   -1.3903    0.8596    0.8969 H   0  0  0  0  0  0  0  0  0  0  0  0
   -1.3874    0.7853   -0.8141 H   0  0  0  0  0  0  0  0  0  0  0  0
   -0.1518   -1.2618    0.8934 H   0  0  0  0  0  0  0  0  0  0  0  0
    0.7751   -0.0633    0.0349 H   0  0  0  0  0  0  0  0  0  0  0  0
   -0.1308   -1.3823   -0.8580 H   0  0  0  0  0  0  0  0  0  0  0  0
  1  2  1  0  0  0  0
  1  3  1  0  0  0  0
  1  5  1  0  0  0  0
  2  8  1  0  0  0  0
  4  1  1  0  0  0  0
  6  2  1  0  0  0  0
  6 10  1  0  0  0  0
  7  2  1  0  0  0  0
  9  6  1  0  0  0  0
  9 13  1  0  0  0  0
  9 12  1  0  0  0  0
 11  6  1  0  0  0  0
 14  9  1  0  0  0  0
M  END
$$$$
