butane_opt
 OpenBabel08242015413D

 14 13  0  0  0  0  0  0  0  0999 V2000
   -3.9447    0.2542    0.0374 C   0  0  0  0  0  0  0  0  0  0  0  0
   -2.7085   -0.6024    0.0251 C   0  0  0  0  0  0  0  0  0  0  0  0
   -4.8529   -0.3421    0.0961 H   0  0  0  0  0  0  0  0  0  0  0  0
   -3.9602    0.8422   -0.8464 H   0  0  0  0  0  0  0  0  0  0  0  0
   -3.9197    0.9434    0.9273 H   0  0  0  0  0  0  0  0  0  0  0  0
   -1.4111    0.1872   -0.0191 C   0  0  0  0  0  0  0  0  0  0  0  0
   -2.7403   -1.2834   -0.8259 H   0  0  0  0  0  0  0  0  0  0  0  0
   -2.7678   -1.1882    0.8773 H   0  0  0  0  0  0  0  0  0  0  0  0
   -0.1444   -0.7023    0.0579 C   0  0  0  0  0  0  0  0  0  0  0  0
   -1.4248    0.8235    0.7711 H   0  0  0  0  0  0  0  0  0  0  0  0
   -1.4155    0.8858   -0.9732 H   0  0  0  0  0  0  0  0  0  0  0  0
   -0.1496   -1.2544    0.9200 H   0  0  0  0  0  0  0  0  0  0  0  0
    0.7605   -0.1066    0.1507 H   0  0  0  0  0  0  0  0  0  0  0  0
   -0.0548   -1.4371   -0.8659 H   0  0  0  0  0  0  0  0  0  0  0  0
  1  3  1  0  0  0  0
  1  5  1  0  0  0  0
  2  1  1  0  0  0  0
  2  8  1  0  0  0  0
  4  1  1  0  0  0  0
  6  2  1  0  0  0  0
  6  9  1  0  0  0  0
  6 10  1  0  0  0  0
  7  2  1  0  0  0  0
  9 13  1  0  0  0  0
  9 12  1  0  0  0  0
 11  6  1  0  0  0  0
 14  9  1  0  0  0  0
M  END
$$$$
