butane_opt
 OpenBabel08242015413D

 14 13  0  0  0  0  0  0  0  0999 V2000
   -3.9554    0.2701    0.0005 C   0  0  0  0  0  0  0  0  0  0  0  0
   -2.7007   -0.6323    0.0581 C   0  0  0  0  0  0  0  0  0  0  0  0
   -4.8470   -0.3101    0.0693 H   0  0  0  0  0  0  0  0  0  0  0  0
   -4.0326    0.9355   -0.9142 H   0  0  0  0  0  0  0  0  0  0  0  0
   -4.0005    0.9414    0.8501 H   0  0  0  0  0  0  0  0  0  0  0  0
   -1.3910    0.1793    0.0245 C   0  0  0  0  0  0  0  0  0  0  0  0
   -2.6901   -1.2903   -0.7846 H   0  0  0  0  0  0  0  0  0  0  0  0
   -2.6895   -1.2685    0.9584 H   0  0  0  0  0  0  0  0  0  0  0  0
   -0.1658   -0.6843    0.0205 C   0  0  0  0  0  0  0  0  0  0  0  0
   -1.3444    0.8673    0.8615 H   0  0  0  0  0  0  0  0  0  0  0  0
   -1.3277    0.8589   -0.9021 H   0  0  0  0  0  0  0  0  0  0  0  0
   -0.1547   -1.2260    0.8759 H   0  0  0  0  0  0  0  0  0  0  0  0
    0.7441   -0.1011    0.0696 H   0  0  0  0  0  0  0  0  0  0  0  0
   -0.1197   -1.4802   -0.9023 H   0  0  0  0  0  0  0  0  0  0  0  0
  1  2  1  0  0  0  0
  1  3  1  0  0  0  0
  1  5  1  0  0  0  0
  2  8  1  0  0  0  0
  4  1  1  0  0  0  0
  6  2  1  0  0  0  0
  6 10  1  0  0  0  0
  7  2  1  0  0  0  0
  9  6  1  0  0  0  0
  9 13  1  0  0  0  0
  9 12  1  0  0  0  0
 11  6  1  0  0  0  0
 14  9  1  0  0  0  0
M  END
$$$$
