butane_opt
 OpenBabel08242015413D

 14 13  0  0  0  0  0  0  0  0999 V2000
   -3.9522    0.2750   -0.0105 C   0  0  0  0  0  0  0  0  0  0  0  0
   -2.7121   -0.6281    0.0849 C   0  0  0  0  0  0  0  0  0  0  0  0
   -4.8626   -0.3100   -0.1172 H   0  0  0  0  0  0  0  0  0  0  0  0
   -3.8384    0.8330   -0.8876 H   0  0  0  0  0  0  0  0  0  0  0  0
   -4.1047    0.9922    0.8629 H   0  0  0  0  0  0  0  0  0  0  0  0
   -1.3929    0.1762    0.0299 C   0  0  0  0  0  0  0  0  0  0  0  0
   -2.6778   -1.2411   -0.6986 H   0  0  0  0  0  0  0  0  0  0  0  0
   -2.7487   -1.2989    0.9957 H   0  0  0  0  0  0  0  0  0  0  0  0
   -0.1469   -0.6907   -0.0016 C   0  0  0  0  0  0  0  0  0  0  0  0
   -1.3588    0.9204    0.9345 H   0  0  0  0  0  0  0  0  0  0  0  0
   -1.4230    0.7847   -0.8361 H   0  0  0  0  0  0  0  0  0  0  0  0
   -0.1414   -1.2964    0.8714 H   0  0  0  0  0  0  0  0  0  0  0  0
    0.7543   -0.0807   -0.0193 H   0  0  0  0  0  0  0  0  0  0  0  0
   -0.1767   -1.3683   -0.8905 H   0  0  0  0  0  0  0  0  0  0  0  0
  1  2  1  0  0  0  0
  1  5  1  0  0  0  0
  2  8  1  0  0  0  0
  3  1  1  0  0  0  0
  4  1  1  0  0  0  0
  6  2  1  0  0  0  0
  6 10  1  0  0  0  0
  7  2  1  0  0  0  0
  9  6  1  0  0  0  0
  9 12  1  0  0  0  0
 11  6  1  0  0  0  0
 13  9  1  0  0  0  0
 14  9  1  0  0  0  0
M  END
$$$$
