14
butane_opt
C  -3.940298   0.274181   0.032747
C  -2.688450  -0.628163   0.040426
H  -4.801371  -0.266194  -0.121642
H  -3.895845   0.762644  -0.775565
H  -4.031796   1.050819   0.964045
C  -1.414360   0.170354  -0.020053
H  -2.727834  -1.337079  -0.824000
H  -2.676939  -1.248255   0.923643
C  -0.167763  -0.683000   0.047221
H  -1.365735   0.817300   0.828840
H  -1.397878   0.828045  -0.943908
H  -0.158933  -1.332815   0.967674
H   0.755560  -0.037752   0.020621
H  -0.203889  -1.301562  -0.783910
