14
butane_opt
C  -3.933697   0.277436  -0.001770
C  -2.687906  -0.635610   0.058378
H  -4.836150  -0.302418   0.147127
H  -4.029578   1.030287  -1.007731
H  -3.916323   0.822275   0.781344
C  -1.413407   0.181556   0.041578
H  -2.698211  -1.352817  -0.815522
H  -2.730516  -1.233834   0.919432
C  -0.165025  -0.680341   0.005672
H  -1.384194   0.872613   0.903182
H  -1.409175   0.720583  -0.818959
H  -0.193048  -1.278349   0.902792
H   0.760873  -0.079762   0.036849
H  -0.191332  -1.371726  -0.869915
