14
butane_opt
C  -3.943587   0.270962   0.002244
C  -2.708899  -0.621759   0.071778
H  -4.876933  -0.345595  -0.006563
H  -3.984272   0.944558  -0.911734
H  -3.995401   0.935808   0.855976
C  -1.397452   0.178211   0.013431
H  -2.706025  -1.285341  -0.760623
H  -2.729013  -1.261322   0.954192
C  -0.153188  -0.695129   0.017584
H  -1.341175   0.846309   0.855120
H  -1.435597   0.802010  -0.879258
H  -0.184562  -1.177253   0.854213
H   0.774336  -0.073243   0.122145
H  -0.105249  -1.448873  -0.916740
