butane_opt
 OpenBabel08242015413D

 14 13  0  0  0  0  0  0  0  0999 V2000
   -3.9517    0.2766    0.0240 C   0  0  0  0  0  0  0  0  0  0  0  0
   -2.7029   -0.6206    0.0048 C   0  0  0  0  0  0  0  0  0  0  0  0
   -4.8506   -0.2934    0.2054 H   0  0  0  0  0  0  0  0  0  0  0  0
   -4.0694    0.9282   -0.8647 H   0  0  0  0  0  0  0  0  0  0  0  0
   -3.8996    0.8841    0.8763 H   0  0  0  0  0  0  0  0  0  0  0  0
   -1.3990    0.1621    0.0100 C   0  0  0  0  0  0  0  0  0  0  0  0
   -2.7470   -1.2867   -0.8582 H   0  0  0  0  0  0  0  0  0  0  0  0
   -2.7188   -1.2737    0.9053 H   0  0  0  0  0  0  0  0  0  0  0  0
   -0.1592   -0.6850    0.0433 C   0  0  0  0  0  0  0  0  0  0  0  0
   -1.3731    0.8607    0.8661 H   0  0  0  0  0  0  0  0  0  0  0  0
   -1.3710    0.8253   -0.8905 H   0  0  0  0  0  0  0  0  0  0  0  0
   -0.1461   -1.3080    0.9647 H   0  0  0  0  0  0  0  0  0  0  0  0
    0.7982   -0.0632    0.0522 H   0  0  0  0  0  0  0  0  0  0  0  0
   -0.1060   -1.3326   -0.8037 H   0  0  0  0  0  0  0  0  0  0  0  0
  1  3  1  0  0  0  0
  1  5  1  0  0  0  0
  2  6  1  0  0  0  0
  2  1  1  0  0  0  0
  2  8  1  0  0  0  0
  4  1  1  0  0  0  0
  6  9  1  0  0  0  0
  6 10  1  0  0  0  0
  7  2  1  0  0  0  0
  9 13  1  0  0  0  0
  9 12  1  0  0  0  0
 11  6  1  0  0  0  0
 14  9  1  0  0  0  0
M  END
$$$$
