butane_opt
 OpenBabel08242015413D

 14 13  0  0  0  0  0  0  0  0999 V2000
   -3.9460    0.2708    0.0265 C   0  0  0  0  0  0  0  0  0  0  0  0
   -2.6905   -0.6341    0.0230 C   0  0  0  0  0  0  0  0  0  0  0  0
   -4.8406   -0.2954    0.0334 H   0  0  0  0  0  0  0  0  0  0  0  0
   -4.0088    0.9249   -0.8860 H   0  0  0  0  0  0  0  0  0  0  0  0
   -3.9708    0.9486    0.9220 H   0  0  0  0  0  0  0  0  0  0  0  0
   -1.3978    0.1782    0.0191 C   0  0  0  0  0  0  0  0  0  0  0  0
   -2.7167   -1.3604   -0.8756 H   0  0  0  0  0  0  0  0  0  0  0  0
   -2.6932   -1.2032    0.8572 H   0  0  0  0  0  0  0  0  0  0  0  0
   -0.1661   -0.6840    0.0374 C   0  0  0  0  0  0  0  0  0  0  0  0
   -1.4242    0.8513    0.8781 H   0  0  0  0  0  0  0  0  0  0  0  0
   -1.4057    0.8336   -0.9051 H   0  0  0  0  0  0  0  0  0  0  0  0
   -0.1358   -1.4029    1.0011 H   0  0  0  0  0  0  0  0  0  0  0  0
    0.7813   -0.0759   -0.1064 H   0  0  0  0  0  0  0  0  0  0  0  0
   -0.2085   -1.2495   -0.7459 H   0  0  0  0  0  0  0  0  0  0  0  0
  1  3  1  0  0  0  0
  1  5  1  0  0  0  0
  2  1  1  0  0  0  0
  2  8  1  0  0  0  0
  4  1  1  0  0  0  0
  6  2  1  0  0  0  0
  6  9  1  0  0  0  0
  6 10  1  0  0  0  0
  7  2  1  0  0  0  0
  9 12  1  0  0  0  0
 11  6  1  0  0  0  0
 13  9  1  0  0  0  0
 14  9  1  0  0  0  0
M  END
$$$$
