14
butane_opt
C  -3.924859   0.250154  -0.013902
C  -2.698262  -0.599862   0.059221
H  -4.862077  -0.337640   0.018653
H  -3.899841   0.879015  -0.951442
H  -3.995481   0.904371   0.812139
C  -1.423545   0.198165   0.064675
H  -2.728828  -1.283157  -0.776908
H  -2.741479  -1.273774   0.980162
C  -0.156535  -0.697706   0.001644
H  -1.379180   0.882627   0.927965
H  -1.427230   0.828031  -0.825757
H  -0.026380  -1.378753   0.925584
H   0.720936  -0.136616  -0.126689
H  -0.241583  -1.367011  -0.879096
