butane_opt
 OpenBabel08242015413D

 14 13  0  0  0  0  0  0  0  0999 V2000
   -3.9505    0.2741    0.0023 C   0  0  0  0  0  0  0  0  0  0  0  0
   -2.6999   -0.6301    0.0446 C   0  0  0  0  0  0  0  0  0  0  0  0
   -4.8282   -0.3251    0.1520 H   0  0  0  0  0  0  0  0  0  0  0  0
   -3.9652    1.0123   -0.9801 H   0  0  0  0  0  0  0  0  0  0  0  0
   -3.9414    0.8553    0.7944 H   0  0  0  0  0  0  0  0  0  0  0  0
   -1.4047    0.1755    0.0333 C   0  0  0  0  0  0  0  0  0  0  0  0
   -2.6787   -1.2704   -0.7742 H   0  0  0  0  0  0  0  0  0  0  0  0
   -2.6733   -1.2738    0.9438 H   0  0  0  0  0  0  0  0  0  0  0  0
   -0.1643   -0.6854    0.0100 C   0  0  0  0  0  0  0  0  0  0  0  0
   -1.3894    0.8859    0.9390 H   0  0  0  0  0  0  0  0  0  0  0  0
   -1.3960    0.7500   -0.8041 H   0  0  0  0  0  0  0  0  0  0  0  0
   -0.1601   -1.2630    0.8899 H   0  0  0  0  0  0  0  0  0  0  0  0
    0.7832   -0.0500    0.0435 H   0  0  0  0  0  0  0  0  0  0  0  0
   -0.1524   -1.3896   -0.8626 H   0  0  0  0  0  0  0  0  0  0  0  0
  1  2  1  0  0  0  0
  1  3  1  0  0  0  0
  1  5  1  0  0  0  0
  2  8  1  0  0  0  0
  4  1  1  0  0  0  0
  6  2  1  0  0  0  0
  6 10  1  0  0  0  0
  7  2  1  0  0  0  0
  9  6  1  0  0  0  0
  9 13  1  0  0  0  0
  9 12  1  0  0  0  0
 11  6  1  0  0  0  0
 14  9  1  0  0  0  0
M  END
$$$$
