14
butane_opt
C  -3.945003   0.258986   0.016941
C  -2.707805  -0.612509   0.030597
H  -4.877996  -0.350098  -0.020386
H  -4.022217   0.795566  -0.835365
H  -3.956488   0.944685   0.912120
C  -1.399787   0.204286   0.013731
H  -2.703741  -1.258658  -0.819047
H  -2.750472  -1.233841   0.912981
C  -0.152649  -0.697505   0.034755
H  -1.360479   0.889851   0.877278
H  -1.428368   0.808889  -0.854248
H  -0.044747  -1.431488   1.009884
H   0.720243  -0.162172  -0.113393
H  -0.131082  -1.319520  -0.769016
