butane_opt
 OpenBabel08242015413D

 14 13  0  0  0  0  0  0  0  0999 V2000
   -3.9502    0.2691   -0.0017 C   0  0  0  0  0  0  0  0  0  0  0  0
   -2.6931   -0.6210    0.0657 C   0  0  0  0  0  0  0  0  0  0  0  0
   -4.8750   -0.3423    0.0614 H   0  0  0  0  0  0  0  0  0  0  0  0
   -3.9572    0.9500   -0.9567 H   0  0  0  0  0  0  0  0  0  0  0  0
   -3.9907    0.9156    0.8403 H   0  0  0  0  0  0  0  0  0  0  0  0
   -1.3998    0.1813    0.0115 C   0  0  0  0  0  0  0  0  0  0  0  0
   -2.6843   -1.2677   -0.7377 H   0  0  0  0  0  0  0  0  0  0  0  0
   -2.6674   -1.3351    1.0009 H   0  0  0  0  0  0  0  0  0  0  0  0
   -0.1725   -0.6932    0.0144 C   0  0  0  0  0  0  0  0  0  0  0  0
   -1.3496    0.9064    0.9140 H   0  0  0  0  0  0  0  0  0  0  0  0
   -1.3967    0.7787   -0.8404 H   0  0  0  0  0  0  0  0  0  0  0  0
   -0.1563   -1.1722    0.8424 H   0  0  0  0  0  0  0  0  0  0  0  0
    0.7687   -0.0649    0.1487 H   0  0  0  0  0  0  0  0  0  0  0  0
   -0.1268   -1.4736   -0.9294 H   0  0  0  0  0  0  0  0  0  0  0  0
  1  3  1  0  0  0  0
  1  2  1  0  0  0  0
  1  5  1  0  0  0  0
  2  8  1  0  0  0  0
  4  1  1  0  0  0  0
  6  9  1  0  0  0  0
  6  2  1  0  0  0  0
  6 10  1  0  0  0  0
  7  2  1  0  0  0  0
  9 13  1  0  0  0  0
  9 12  1  0  0  0  0
 11  6  1  0  0  0  0
 14  9  1  0  0  0  0
M  END
$$$$
