14
butane_opt
C  -3.933487   0.260668   0.001914
C  -2.705533  -0.604719   0.052614
H  -4.868166  -0.349613  -0.019372
H  -3.940199   0.802909  -0.863801
H  -3.977933   0.955838   0.853245
C  -1.418665   0.195855   0.034596
H  -2.680998  -1.310341  -0.800361
H  -2.770721  -1.229487   0.947462
C  -0.149778  -0.703462   0.021301
H  -1.371714   0.849479   0.890101
H  -1.416089   0.820478  -0.873341
H  -0.086894  -1.365010   0.925923
H   0.773291  -0.099090  -0.130026
H  -0.192888  -1.323626  -0.803111
