butane_opt
 OpenBabel08242015413D

 14 13  0  0  0  0  0  0  0  0999 V2000
   -3.9288    0.2726   -0.0122 C   0  0  0  0  0  0  0  0  0  0  0  0
   -2.6945   -0.6247    0.0540 C   0  0  0  0  0  0  0  0  0  0  0  0
   -4.8253   -0.3350    0.0415 H   0  0  0  0  0  0  0  0  0  0  0  0
   -4.0125    0.9414   -0.9429 H   0  0  0  0  0  0  0  0  0  0  0  0
   -3.9597    0.8895    0.8146 H   0  0  0  0  0  0  0  0  0  0  0  0
   -1.4138    0.1767    0.0574 C   0  0  0  0  0  0  0  0  0  0  0  0
   -2.6520   -1.2755   -0.7882 H   0  0  0  0  0  0  0  0  0  0  0  0
   -2.7280   -1.3078    0.9785 H   0  0  0  0  0  0  0  0  0  0  0  0
   -0.1693   -0.6895    0.0005 C   0  0  0  0  0  0  0  0  0  0  0  0
   -1.3360    0.9020    0.9629 H   0  0  0  0  0  0  0  0  0  0  0  0
   -1.4455    0.7810   -0.8117 H   0  0  0  0  0  0  0  0  0  0  0  0
   -0.1188   -1.3041    0.9081 H   0  0  0  0  0  0  0  0  0  0  0  0
    0.7531   -0.0845   -0.0965 H   0  0  0  0  0  0  0  0  0  0  0  0
   -0.2200   -1.2945   -0.8242 H   0  0  0  0  0  0  0  0  0  0  0  0
  1  3  1  0  0  0  0
  1  2  1  0  0  0  0
  1  5  1  0  0  0  0
  2  6  1  0  0  0  0
  2  8  1  0  0  0  0
  4  1  1  0  0  0  0
  6 10  1  0  0  0  0
  7  2  1  0  0  0  0
  9  6  1  0  0  0  0
  9 12  1  0  0  0  0
 11  6  1  0  0  0  0
 13  9  1  0  0  0  0
 14  9  1  0  0  0  0
M  END
$$$$
