14
butane_opt
C  -3.951882   0.245199   0.040872
C  -2.710444  -0.605471   0.029347
H  -4.819374  -0.312074  -0.107274
H  -3.902548   0.766616  -0.794670
H  -4.035664   1.048546   0.994999
C  -1.407890   0.201299  -0.017617
H  -2.754096  -1.333589  -0.839534
H  -2.683253  -1.204176   0.912043
C  -0.145385  -0.702800   0.047277
H  -1.418050   0.858549   0.797243
H  -1.376741   0.902511  -0.943553
H  -0.105095  -1.429152   1.011091
H   0.749841  -0.101848   0.010925
H  -0.090662  -1.330245  -0.782413
