14
butane_opt
C  -3.954617   0.269798   0.022340
C  -2.704015  -0.637820   0.016081
H  -4.793918  -0.259103   0.066389
H  -4.022833   0.898002  -0.879357
H  -3.966077   0.960238   0.904491
C  -1.403687   0.181133   0.025891
H  -2.680095  -1.322290  -0.844642
H  -2.698912  -1.232626   0.887994
C  -0.155507  -0.680384   0.037396
H  -1.363215   0.833598   0.828398
H  -1.404661   0.813482  -0.870459
H  -0.058476  -1.407339   1.016070
H   0.771780  -0.068032  -0.075582
H  -0.204654  -1.268642  -0.795204
