14
butane_opt
C  -3.954575   0.255295  -0.004664
C  -2.710727  -0.598197   0.066329
H  -4.886648  -0.344600   0.060023
H  -4.010863   0.926008  -0.917140
H  -3.922145   0.888743   0.846904
C  -1.392911   0.193835   0.015674
H  -2.702054  -1.279150  -0.748740
H  -2.750461  -1.297379   1.012581
C  -0.152241  -0.703319   0.012108
H  -1.399761   0.888009   0.882744
H  -1.380801   0.802080  -0.852515
H  -0.162784  -1.222622   0.828628
H   0.761529  -0.104431   0.150410
H  -0.042103  -1.499548  -0.919734
