14
butane_opt
C  -3.962234   0.268463   0.033707
C  -2.699509  -0.627121   0.035140
H  -4.825479  -0.315432  -0.063653
H  -3.924229   0.780814  -0.800544
H  -4.051853   1.072258   0.959533
C  -1.394483   0.182854  -0.014947
H  -2.689434  -1.319115  -0.828725
H  -2.690054  -1.225747   0.898128
C  -0.162538  -0.688975   0.046959
H  -1.341992   0.845320   0.823328
H  -1.386270   0.793786  -0.932417
H  -0.121873  -1.355416   0.975442
H   0.735444  -0.100508  -0.023653
H  -0.105985  -1.265746  -0.750374
