14
butane_opt
C  -3.948490   0.260752   0.025103
C  -2.702431  -0.623195   0.040571
H  -4.871083  -0.345629  -0.078920
H  -3.944879   0.792254  -0.816357
H  -4.014906   1.015226   0.937337
C  -1.405331   0.195213   0.003839
H  -2.749339  -1.279345  -0.831257
H  -2.678882  -1.202855   0.896496
C  -0.150537  -0.691531   0.032592
H  -1.377295   0.829560   0.823764
H  -1.400629   0.862626  -0.912158
H  -0.083246  -1.385133   1.015012
H   0.700127  -0.150251  -0.003170
H  -0.117361  -1.318654  -0.800805
