butane_opt
 OpenBabel08242015413D

 14 13  0  0  0  0  0  0  0  0999 V2000
   -3.9342    0.2754    0.0205 C   0  0  0  0  0  0  0  0  0  0  0  0
   -2.6952   -0.6293    0.0238 C   0  0  0  0  0  0  0  0  0  0  0  0
   -4.8384   -0.3112    0.1357 H   0  0  0  0  0  0  0  0  0  0  0  0
   -4.0528    0.9451   -0.9094 H   0  0  0  0  0  0  0  0  0  0  0  0
   -3.9440    0.8911    0.8323 H   0  0  0  0  0  0  0  0  0  0  0  0
   -1.3985    0.1758    0.0191 C   0  0  0  0  0  0  0  0  0  0  0  0
   -2.6750   -1.2736   -0.7890 H   0  0  0  0  0  0  0  0  0  0  0  0
   -2.7588   -1.2761    0.9115 H   0  0  0  0  0  0  0  0  0  0  0  0
   -0.1753   -0.6794    0.0325 C   0  0  0  0  0  0  0  0  0  0  0  0
   -1.3946    0.8656    0.8668 H   0  0  0  0  0  0  0  0  0  0  0  0
   -1.3930    0.7660   -0.8665 H   0  0  0  0  0  0  0  0  0  0  0  0
   -0.1721   -1.2989    0.9201 H   0  0  0  0  0  0  0  0  0  0  0  0
    0.7469   -0.0823    0.0145 H   0  0  0  0  0  0  0  0  0  0  0  0
   -0.1112   -1.3979   -0.8349 H   0  0  0  0  0  0  0  0  0  0  0  0
  1  2  1  0  0  0  0
  1  3  1  0  0  0  0
  1  5  1  0  0  0  0
  2  8  1  0  0  0  0
  4  1  1  0  0  0  0
  6  2  1  0  0  0  0
  6  9  1  0  0  0  0
  6 10  1  0  0  0  0
  7  2  1  0  0  0  0
  9 12  1  0  0  0  0
 11  6  1  0  0  0  0
 13  9  1  0  0  0  0
 14  9  1  0  0  0  0
M  END
$$$$
