butane_opt
 OpenBabel08242015413D

 14 13  0  0  0  0  0  0  0  0999 V2000
   -3.9361    0.2493    0.0236 C   0  0  0  0  0  0  0  0  0  0  0  0
   -2.6962   -0.5942    0.0388 C   0  0  0  0  0  0  0  0  0  0  0  0
   -4.8831   -0.3879   -0.0456 H   0  0  0  0  0  0  0  0  0  0  0  0
   -3.8901    0.7560   -0.8344 H   0  0  0  0  0  0  0  0  0  0  0  0
   -3.9806    1.0471    0.9506 H   0  0  0  0  0  0  0  0  0  0  0  0
   -1.4165    0.1927   -0.0061 C   0  0  0  0  0  0  0  0  0  0  0  0
   -2.6774   -1.2625   -0.8117 H   0  0  0  0  0  0  0  0  0  0  0  0
   -2.7276   -1.2231    0.9635 H   0  0  0  0  0  0  0  0  0  0  0  0
   -0.1701   -0.7067    0.0411 C   0  0  0  0  0  0  0  0  0  0  0  0
   -1.3818    0.8756    0.8493 H   0  0  0  0  0  0  0  0  0  0  0  0
   -1.3873    0.8301   -0.9121 H   0  0  0  0  0  0  0  0  0  0  0  0
   -0.0926   -1.3571    0.9478 H   0  0  0  0  0  0  0  0  0  0  0  0
    0.7626   -0.1172   -0.0263 H   0  0  0  0  0  0  0  0  0  0  0  0
   -0.1302   -1.3329   -0.7875 H   0  0  0  0  0  0  0  0  0  0  0  0
  1  2  1  0  0  0  0
  1  5  1  0  0  0  0
  2  8  1  0  0  0  0
  3  1  1  0  0  0  0
  4  1  1  0  0  0  0
  6  2  1  0  0  0  0
  6  9  1  0  0  0  0
  6 10  1  0  0  0  0
  7  2  1  0  0  0  0
  9 12  1  0  0  0  0
 11  6  1  0  0  0  0
 13  9  1  0  0  0  0
 14  9  1  0  0  0  0
M  END
$$$$
