butane_opt
 OpenBabel08242015413D

 14 13  0  0  0  0  0  0  0  0999 V2000
   -3.9407    0.2680    0.0280 C   0  0  0  0  0  0  0  0  0  0  0  0
   -2.7013   -0.6280    0.0267 C   0  0  0  0  0  0  0  0  0  0  0  0
   -4.8285   -0.2839   -0.0182 H   0  0  0  0  0  0  0  0  0  0  0  0
   -3.9691    0.8312   -0.8219 H   0  0  0  0  0  0  0  0  0  0  0  0
   -3.9322    1.0111    0.9405 H   0  0  0  0  0  0  0  0  0  0  0  0
   -1.4077    0.1876    0.0044 C   0  0  0  0  0  0  0  0  0  0  0  0
   -2.7491   -1.3460   -0.8788 H   0  0  0  0  0  0  0  0  0  0  0  0
   -2.6808   -1.1789    0.8719 H   0  0  0  0  0  0  0  0  0  0  0  0
   -0.1666   -0.6922    0.0468 C   0  0  0  0  0  0  0  0  0  0  0  0
   -1.3500    0.8355    0.8215 H   0  0  0  0  0  0  0  0  0  0  0  0
   -1.3861    0.8058   -0.9058 H   0  0  0  0  0  0  0  0  0  0  0  0
   -0.1320   -1.4513    1.0132 H   0  0  0  0  0  0  0  0  0  0  0  0
    0.7736   -0.0540   -0.0993 H   0  0  0  0  0  0  0  0  0  0  0  0
   -0.1823   -1.2582   -0.7368 H   0  0  0  0  0  0  0  0  0  0  0  0
  1  5  1  0  0  0  0
  2  1  1  0  0  0  0
  2  8  1  0  0  0  0
  3  1  1  0  0  0  0
  4  1  1  0  0  0  0
  6  2  1  0  0  0  0
  6  9  1  0  0  0  0
  6 10  1  0  0  0  0
  7  2  1  0  0  0  0
  9 12  1  0  0  0  0
 11  6  1  0  0  0  0
 13  9  1  0  0  0  0
 14  9  1  0  0  0  0
M  END
$$$$
