butane_opt
 OpenBabel08242015413D

 14 13  0  0  0  0  0  0  0  0999 V2000
   -3.9474    0.2548    0.0343 C   0  0  0  0  0  0  0  0  0  0  0  0
   -2.6994   -0.6102    0.0275 C   0  0  0  0  0  0  0  0  0  0  0  0
   -4.8593   -0.3533    0.0198 H   0  0  0  0  0  0  0  0  0  0  0  0
   -3.9432    0.8472   -0.8517 H   0  0  0  0  0  0  0  0  0  0  0  0
   -4.0362    0.9430    0.8993 H   0  0  0  0  0  0  0  0  0  0  0  0
   -1.4066    0.2013   -0.0034 C   0  0  0  0  0  0  0  0  0  0  0  0
   -2.7785   -1.3125   -0.8552 H   0  0  0  0  0  0  0  0  0  0  0  0
   -2.7076   -1.2080    0.9064 H   0  0  0  0  0  0  0  0  0  0  0  0
   -0.1507   -0.6985    0.0398 C   0  0  0  0  0  0  0  0  0  0  0  0
   -1.4083    0.8720    0.8532 H   0  0  0  0  0  0  0  0  0  0  0  0
   -1.3585    0.8584   -0.9074 H   0  0  0  0  0  0  0  0  0  0  0  0
   -0.1078   -1.3911    0.9863 H   0  0  0  0  0  0  0  0  0  0  0  0
    0.7313   -0.1264    0.0096 H   0  0  0  0  0  0  0  0  0  0  0  0
   -0.1006   -1.3762   -0.7931 H   0  0  0  0  0  0  0  0  0  0  0  0
  1  5  1  0  0  0  0
  2  1  1  0  0  0  0
  2  8  1  0  0  0  0
  3  1  1  0  0  0  0
  4  1  1  0  0  0  0
  6  2  1  0  0  0  0
  6  9  1  0  0  0  0
  6 10  1  0  0  0  0
  7  2  1  0  0  0  0
  9 12  1  0  0  0  0
 11  6  1  0  0  0  0
 13  9  1  0  0  0  0
 14  9  1  0  0  0  0
M  END
$$$$
