14
butane_opt
C  -3.937386   0.263338  -0.002042
C  -2.702587  -0.619638   0.067330
H  -4.837491  -0.302006  -0.022151
H  -3.896805   0.921634  -0.946271
H  -3.987498   0.874349   0.792306
C  -1.408493   0.193480   0.046189
H  -2.694745  -1.346610  -0.821058
H  -2.742187  -1.240580   0.955121
C  -0.162859  -0.693918   0.006975
H  -1.396265   0.932139   0.937085
H  -1.436291   0.775606  -0.834943
H  -0.049010  -1.352248   0.938712
H   0.749900  -0.111180  -0.137196
H  -0.207023  -1.334680  -0.844898
