14
butane_opt
C  -3.951804   0.258337   0.009438
C  -2.712269  -0.611131   0.046700
H  -4.872790  -0.339145   0.106284
H  -3.951208   0.993722  -0.983150
H  -3.970236   0.819488   0.779037
C  -1.396368   0.199058   0.035644
H  -2.713476  -1.327129  -0.825008
H  -2.704889  -1.231994   0.941213
C  -0.155687  -0.708752   0.016376
H  -1.360698   0.908678   0.931675
H  -1.393215   0.819279  -0.842728
H  -0.096486  -1.262084   0.895005
H   0.741909  -0.125110  -0.023727
H  -0.104929  -1.378825  -0.854804
