butane_opt
 OpenBabel08242015413D

 14 13  0  0  0  0  0  0  0  0999 V2000
   -3.9316    0.2596    0.0472 C   0  0  0  0  0  0  0  0  0  0  0  0
   -2.7056   -0.5969    0.0082 C   0  0  0  0  0  0  0  0  0  0  0  0
   -4.8818   -0.3971    0.1009 H   0  0  0  0  0  0  0  0  0  0  0  0
   -3.9884    0.8859   -0.8473 H   0  0  0  0  0  0  0  0  0  0  0  0
   -3.9076    0.9209    0.9035 H   0  0  0  0  0  0  0  0  0  0  0  0
   -1.4077    0.1812   -0.0188 C   0  0  0  0  0  0  0  0  0  0  0  0
   -2.7220   -1.2783   -0.8599 H   0  0  0  0  0  0  0  0  0  0  0  0
   -2.6731   -1.2450    0.8894 H   0  0  0  0  0  0  0  0  0  0  0  0
   -0.1671   -0.6988    0.0644 C   0  0  0  0  0  0  0  0  0  0  0  0
   -1.3969    0.8207    0.7898 H   0  0  0  0  0  0  0  0  0  0  0  0
   -1.3726    0.8929   -0.9563 H   0  0  0  0  0  0  0  0  0  0  0  0
   -0.1706   -1.2696    0.9090 H   0  0  0  0  0  0  0  0  0  0  0  0
    0.7430   -0.1180    0.1365 H   0  0  0  0  0  0  0  0  0  0  0  0
   -0.0997   -1.4349   -0.8399 H   0  0  0  0  0  0  0  0  0  0  0  0
  1  3  1  0  0  0  0
  1  5  1  0  0  0  0
  2  1  1  0  0  0  0
  2  8  1  0  0  0  0
  4  1  1  0  0  0  0
  6  2  1  0  0  0  0
  6  9  1  0  0  0  0
  6 10  1  0  0  0  0
  7  2  1  0  0  0  0
  9 13  1  0  0  0  0
  9 12  1  0  0  0  0
 11  6  1  0  0  0  0
 14  9  1  0  0  0  0
M  END
$$$$
