butane_opt
 OpenBabel08242015413D

 14 13  0  0  0  0  0  0  0  0999 V2000
   -3.9629    0.2822    0.0484 C   0  0  0  0  0  0  0  0  0  0  0  0
   -2.6994   -0.6310    0.0247 C   0  0  0  0  0  0  0  0  0  0  0  0
   -4.8888   -0.3171   -0.0849 H   0  0  0  0  0  0  0  0  0  0  0  0
   -3.9511    0.7884   -0.8004 H   0  0  0  0  0  0  0  0  0  0  0  0
   -3.9815    1.0368    0.9842 H   0  0  0  0  0  0  0  0  0  0  0  0
   -1.3932    0.1746   -0.0325 C   0  0  0  0  0  0  0  0  0  0  0  0
   -2.7245   -1.3259   -0.8492 H   0  0  0  0  0  0  0  0  0  0  0  0
   -2.7297   -1.2463    0.9316 H   0  0  0  0  0  0  0  0  0  0  0  0
   -0.1581   -0.6862    0.0549 C   0  0  0  0  0  0  0  0  0  0  0  0
   -1.3564    0.8433    0.8106 H   0  0  0  0  0  0  0  0  0  0  0  0
   -1.3553    0.8187   -0.9402 H   0  0  0  0  0  0  0  0  0  0  0  0
   -0.1917   -1.3640    0.9946 H   0  0  0  0  0  0  0  0  0  0  0  0
    0.7736   -0.0546    0.0541 H   0  0  0  0  0  0  0  0  0  0  0  0
   -0.0652   -1.3266   -0.7940 H   0  0  0  0  0  0  0  0  0  0  0  0
  1  5  1  0  0  0  0
  2  1  1  0  0  0  0
  2  8  1  0  0  0  0
  3  1  1  0  0  0  0
  4  1  1  0  0  0  0
  6  2  1  0  0  0  0
  6  9  1  0  0  0  0
  6 10  1  0  0  0  0
  7  2  1  0  0  0  0
  9 12  1  0  0  0  0
 11  6  1  0  0  0  0
 13  9  1  0  0  0  0
 14  9  1  0  0  0  0
M  END
$$$$
