butane_opt
 OpenBabel08242015413D

 14 13  0  0  0  0  0  0  0  0999 V2000
   -3.9558    0.2808   -0.0199 C   0  0  0  0  0  0  0  0  0  0  0  0
   -2.6984   -0.6431    0.0901 C   0  0  0  0  0  0  0  0  0  0  0  0
   -4.8696   -0.3016   -0.0962 H   0  0  0  0  0  0  0  0  0  0  0  0
   -3.9094    0.8603   -0.8934 H   0  0  0  0  0  0  0  0  0  0  0  0
   -4.0461    1.0073    0.8728 H   0  0  0  0  0  0  0  0  0  0  0  0
   -1.3902    0.1804    0.0404 C   0  0  0  0  0  0  0  0  0  0  0  0
   -2.6752   -1.2818   -0.7684 H   0  0  0  0  0  0  0  0  0  0  0  0
   -2.7799   -1.3085    1.0163 H   0  0  0  0  0  0  0  0  0  0  0  0
   -0.1667   -0.6869    0.0025 C   0  0  0  0  0  0  0  0  0  0  0  0
   -1.3388    0.8683    0.8987 H   0  0  0  0  0  0  0  0  0  0  0  0
   -1.3931    0.8253   -0.8586 H   0  0  0  0  0  0  0  0  0  0  0  0
   -0.0351   -1.2463    0.8425 H   0  0  0  0  0  0  0  0  0  0  0  0
    0.7490   -0.1053   -0.0234 H   0  0  0  0  0  0  0  0  0  0  0  0
   -0.1994   -1.3654   -0.8993 H   0  0  0  0  0  0  0  0  0  0  0  0
  1  2  1  0  0  0  0
  1  5  1  0  0  0  0
  2  8  1  0  0  0  0
  3  1  1  0  0  0  0
  4  1  1  0  0  0  0
  6  2  1  0  0  0  0
  6 10  1  0  0  0  0
  7  2  1  0  0  0  0
  9  6  1  0  0  0  0
  9 12  1  0  0  0  0
 11  6  1  0  0  0  0
 13  9  1  0  0  0  0
 14  9  1  0  0  0  0
M  END
$$$$
