14
butane_opt
C  -3.950519   0.259444   0.036873
C  -2.705320  -0.604689   0.007921
H  -4.883965  -0.339166   0.166369
H  -4.026223   0.895020  -0.883142
H  -3.889625   0.817715   0.840447
C  -1.405892   0.192894  -0.005823
H  -2.742715  -1.295749  -0.855133
H  -2.689964  -1.205340   0.884537
C  -0.151702  -0.699606   0.056524
H  -1.416974   0.839948   0.827264
H  -1.397783   0.851017  -0.884345
H  -0.045919  -1.283513   0.939814
H   0.733093  -0.116836   0.076772
H  -0.106266  -1.415265  -0.826783
