14
butane_opt
C  -3.952015   0.261616   0.000587
C  -2.705021  -0.625939   0.068652
H  -4.833393  -0.304778   0.065443
H  -3.931246   0.966738  -0.938961
H  -4.022943   0.904739   0.843205
C  -1.389521   0.195342   0.019511
H  -2.743397  -1.281707  -0.765388
H  -2.726370  -1.245024   0.954274
C  -0.156034  -0.695969   0.012209
H  -1.359846   0.836155   0.859524
H  -1.449927   0.822027  -0.884187
H  -0.188872  -1.181273   0.822624
H   0.751508  -0.120042   0.166461
H  -0.087669  -1.486270  -0.906215
