butane_opt
 OpenBabel08242015413D

 14 13  0  0  0  0  0  0  0  0999 V2000
   -3.9518    0.2786    0.0007 C   0  0  0  0  0  0  0  0  0  0  0  0
   -2.7048   -0.6356    0.0584 C   0  0  0  0  0  0  0  0  0  0  0  0
   -4.8138   -0.2772    0.0742 H   0  0  0  0  0  0  0  0  0  0  0  0
   -4.0078    0.9466   -0.9405 H   0  0  0  0  0  0  0  0  0  0  0  0
   -4.0024    0.8884    0.7975 H   0  0  0  0  0  0  0  0  0  0  0  0
   -1.3924    0.1675    0.0234 C   0  0  0  0  0  0  0  0  0  0  0  0
   -2.7580   -1.2318   -0.7596 H   0  0  0  0  0  0  0  0  0  0  0  0
   -2.7167   -1.3343    1.0097 H   0  0  0  0  0  0  0  0  0  0  0  0
   -0.1594   -0.6843    0.0102 C   0  0  0  0  0  0  0  0  0  0  0  0
   -1.3727    0.9007    0.9195 H   0  0  0  0  0  0  0  0  0  0  0  0
   -1.3998    0.8104   -0.8623 H   0  0  0  0  0  0  0  0  0  0  0  0
   -0.1375   -1.1763    0.8349 H   0  0  0  0  0  0  0  0  0  0  0  0
    0.7672   -0.0631    0.1638 H   0  0  0  0  0  0  0  0  0  0  0  0
   -0.0956   -1.4488   -0.9269 H   0  0  0  0  0  0  0  0  0  0  0  0
  1  2  1  0  0  0  0
  1  3  1  0  0  0  0
  1  5  1  0  0  0  0
  2  8  1  0  0  0  0
  4  1  1  0  0  0  0
  6  2  1  0  0  0  0
  6 10  1  0  0  0  0
  7  2  1  0  0  0  0
  9  6  1  0  0  0  0
  9 13  1  0  0  0  0
  9 12  1  0  0  0  0
 11  6  1  0  0  0  0
 14  9  1  0  0  0  0
M  END
$$$$
