butane_opt
 OpenBabel08242015413D

 14 13  0  0  0  0  0  0  0  0999 V2000
   -3.9502    0.2680    0.0175 C   0  0  0  0  0  0  0  0  0  0  0  0
   -2.6871   -0.6165    0.0514 C   0  0  0  0  0  0  0  0  0  0  0  0
   -4.8698   -0.3498   -0.0733 H   0  0  0  0  0  0  0  0  0  0  0  0
   -3.9745    0.8277   -0.8324 H   0  0  0  0  0  0  0  0  0  0  0  0
   -3.9785    1.0482    0.9470 H   0  0  0  0  0  0  0  0  0  0  0  0
   -1.4075    0.1660   -0.0020 C   0  0  0  0  0  0  0  0  0  0  0  0
   -2.6484   -1.3083   -0.8188 H   0  0  0  0  0  0  0  0  0  0  0  0
   -2.7113   -1.2338    0.9477 H   0  0  0  0  0  0  0  0  0  0  0  0
   -0.1669   -0.6821    0.0346 C   0  0  0  0  0  0  0  0  0  0  0  0
   -1.3625    0.8170    0.8477 H   0  0  0  0  0  0  0  0  0  0  0  0
   -1.3589    0.8378   -0.9165 H   0  0  0  0  0  0  0  0  0  0  0  0
   -0.1700   -1.2981    0.9360 H   0  0  0  0  0  0  0  0  0  0  0  0
    0.7641   -0.0935    0.0032 H   0  0  0  0  0  0  0  0  0  0  0  0
   -0.1675   -1.3465   -0.8122 H   0  0  0  0  0  0  0  0  0  0  0  0
  1  2  1  0  0  0  0
  1  5  1  0  0  0  0
  2  8  1  0  0  0  0
  3  1  1  0  0  0  0
  4  1  1  0  0  0  0
  6  9  1  0  0  0  0
  6  2  1  0  0  0  0
  6 10  1  0  0  0  0
  7  2  1  0  0  0  0
  9 12  1  0  0  0  0
 11  6  1  0  0  0  0
 13  9  1  0  0  0  0
 14  9  1  0  0  0  0
M  END
$$$$
