butane_opt
 OpenBabel08242015413D

 14 13  0  0  0  0  0  0  0  0999 V2000
   -3.9366    0.2551    0.0390 C   0  0  0  0  0  0  0  0  0  0  0  0
   -2.6945   -0.6081    0.0218 C   0  0  0  0  0  0  0  0  0  0  0  0
   -4.8691   -0.3262    0.0609 H   0  0  0  0  0  0  0  0  0  0  0  0
   -4.0044    0.8594   -0.8459 H   0  0  0  0  0  0  0  0  0  0  0  0
   -3.8702    0.9489    0.9342 H   0  0  0  0  0  0  0  0  0  0  0  0
   -1.4085    0.1880   -0.0183 C   0  0  0  0  0  0  0  0  0  0  0  0
   -2.6986   -1.2931   -0.8500 H   0  0  0  0  0  0  0  0  0  0  0  0
   -2.7231   -1.2098    0.8789 H   0  0  0  0  0  0  0  0  0  0  0  0
   -0.1585   -0.7007    0.0587 C   0  0  0  0  0  0  0  0  0  0  0  0
   -1.4613    0.8100    0.7996 H   0  0  0  0  0  0  0  0  0  0  0  0
   -1.4326    0.8583   -0.9506 H   0  0  0  0  0  0  0  0  0  0  0  0
   -0.2065   -1.2599    0.9119 H   0  0  0  0  0  0  0  0  0  0  0  0
    0.7552   -0.1061    0.0986 H   0  0  0  0  0  0  0  0  0  0  0  0
   -0.1312   -1.3681   -0.8121 H   0  0  0  0  0  0  0  0  0  0  0  0
  1  3  1  0  0  0  0
  1  5  1  0  0  0  0
  2  1  1  0  0  0  0
  2  8  1  0  0  0  0
  4  1  1  0  0  0  0
  6  2  1  0  0  0  0
  6  9  1  0  0  0  0
  6 10  1  0  0  0  0
  7  2  1  0  0  0  0
  9 13  1  0  0  0  0
  9 12  1  0  0  0  0
 11  6  1  0  0  0  0
 14  9  1  0  0  0  0
M  END
$$$$
