butane_opt
 OpenBabel08242015413D

 14 13  0  0  0  0  0  0  0  0999 V2000
   -3.9391    0.2701    0.0450 C   0  0  0  0  0  0  0  0  0  0  0  0
   -2.6861   -0.6274   -0.0038 C   0  0  0  0  0  0  0  0  0  0  0  0
   -4.8350   -0.3131    0.1313 H   0  0  0  0  0  0  0  0  0  0  0  0
   -4.0586    0.9343   -0.8375 H   0  0  0  0  0  0  0  0  0  0  0  0
   -3.9125    0.9145    0.8981 H   0  0  0  0  0  0  0  0  0  0  0  0
   -1.4015    0.1805   -0.0148 C   0  0  0  0  0  0  0  0  0  0  0  0
   -2.7122   -1.3354   -0.8774 H   0  0  0  0  0  0  0  0  0  0  0  0
   -2.6910   -1.2379    0.8578 H   0  0  0  0  0  0  0  0  0  0  0  0
   -0.1718   -0.6852    0.0668 C   0  0  0  0  0  0  0  0  0  0  0  0
   -1.4531    0.8696    0.8363 H   0  0  0  0  0  0  0  0  0  0  0  0
   -1.3616    0.7897   -0.8787 H   0  0  0  0  0  0  0  0  0  0  0  0
   -0.1703   -1.3574    1.0193 H   0  0  0  0  0  0  0  0  0  0  0  0
    0.7470   -0.0700   -0.0454 H   0  0  0  0  0  0  0  0  0  0  0  0
   -0.1946   -1.3184   -0.7857 H   0  0  0  0  0  0  0  0  0  0  0  0
  1  3  1  0  0  0  0
  1  5  1  0  0  0  0
  2  1  1  0  0  0  0
  2  8  1  0  0  0  0
  4  1  1  0  0  0  0
  6  2  1  0  0  0  0
  6  9  1  0  0  0  0
  6 10  1  0  0  0  0
  7  2  1  0  0  0  0
  9 12  1  0  0  0  0
 11  6  1  0  0  0  0
 13  9  1  0  0  0  0
 14  9  1  0  0  0  0
M  END
$$$$
