butane_opt
 OpenBabel08242015413D

 14 13  0  0  0  0  0  0  0  0999 V2000
   -3.9324    0.2696   -0.0227 C   0  0  0  0  0  0  0  0  0  0  0  0
   -2.6870   -0.6288    0.0747 C   0  0  0  0  0  0  0  0  0  0  0  0
   -4.8329   -0.3155    0.0053 H   0  0  0  0  0  0  0  0  0  0  0  0
   -3.9725    0.9080   -0.9189 H   0  0  0  0  0  0  0  0  0  0  0  0
   -4.0223    0.9269    0.8324 H   0  0  0  0  0  0  0  0  0  0  0  0
   -1.4105    0.1820    0.0489 C   0  0  0  0  0  0  0  0  0  0  0  0
   -2.6722   -1.2541   -0.7447 H   0  0  0  0  0  0  0  0  0  0  0  0
   -2.7209   -1.2904    0.9978 H   0  0  0  0  0  0  0  0  0  0  0  0
   -0.1735   -0.6955   -0.0014 C   0  0  0  0  0  0  0  0  0  0  0  0
   -1.3920    0.8981    0.9299 H   0  0  0  0  0  0  0  0  0  0  0  0
   -1.3695    0.7740   -0.7967 H   0  0  0  0  0  0  0  0  0  0  0  0
   -0.0803   -1.2558    0.8598 H   0  0  0  0  0  0  0  0  0  0  0  0
    0.7489   -0.0749   -0.0439 H   0  0  0  0  0  0  0  0  0  0  0  0
   -0.2617   -1.3175   -0.8775 H   0  0  0  0  0  0  0  0  0  0  0  0
  1  3  1  0  0  0  0
  1  2  1  0  0  0  0
  1  5  1  0  0  0  0
  2  8  1  0  0  0  0
  4  1  1  0  0  0  0
  6  2  1  0  0  0  0
  6 10  1  0  0  0  0
  7  2  1  0  0  0  0
  9  6  1  0  0  0  0
  9 12  1  0  0  0  0
 11  6  1  0  0  0  0
 13  9  1  0  0  0  0
 14  9  1  0  0  0  0
M  END
$$$$
