butane_opt
 OpenBabel08242015413D

 14 13  0  0  0  0  0  0  0  0999 V2000
   -3.9674    0.2787    0.0440 C   0  0  0  0  0  0  0  0  0  0  0  0
   -2.7033   -0.6319   -0.0076 C   0  0  0  0  0  0  0  0  0  0  0  0
   -4.8684   -0.2859    0.0773 H   0  0  0  0  0  0  0  0  0  0  0  0
   -3.9955    0.8536   -0.8110 H   0  0  0  0  0  0  0  0  0  0  0  0
   -3.9358    0.9920    0.9339 H   0  0  0  0  0  0  0  0  0  0  0  0
   -1.3939    0.1773   -0.0072 C   0  0  0  0  0  0  0  0  0  0  0  0
   -2.7274   -1.3150   -0.8843 H   0  0  0  0  0  0  0  0  0  0  0  0
   -2.6804   -1.2523    0.8592 H   0  0  0  0  0  0  0  0  0  0  0  0
   -0.1564   -0.6854    0.0669 C   0  0  0  0  0  0  0  0  0  0  0  0
   -1.3427    0.8309    0.8477 H   0  0  0  0  0  0  0  0  0  0  0  0
   -1.3428    0.7861   -0.9042 H   0  0  0  0  0  0  0  0  0  0  0  0
   -0.0971   -1.4276    1.0472 H   0  0  0  0  0  0  0  0  0  0  0  0
    0.7965   -0.0672   -0.1068 H   0  0  0  0  0  0  0  0  0  0  0  0
   -0.1916   -1.2397   -0.7520 H   0  0  0  0  0  0  0  0  0  0  0  0
  1  3  1  0  0  0  0
  1  5  1  0  0  0  0
  2  6  1  0  0  0  0
  2  1  1  0  0  0  0
  2  8  1  0  0  0  0
  4  1  1  0  0  0  0
  6  9  1  0  0  0  0
  6 10  1  0  0  0  0
  7  2  1  0  0  0  0
  9 12  1  0  0  0  0
 11  6  1  0  0  0  0
 13  9  1  0  0  0  0
 14  9  1  0  0  0  0
M  END
$$$$
