14
butane_opt
C  -3.951978   0.274827   0.032240
C  -2.707756  -0.624954   0.018600
H  -4.853322  -0.306105  -0.008782
H  -3.986207   0.875546  -0.852182
H  -4.045376   0.981232   0.905506
C  -1.389280   0.180675   0.007751
H  -2.704273  -1.321074  -0.835277
H  -2.704068  -1.261965   0.890056
C  -0.155527  -0.692949   0.040360
H  -1.382992   0.869703   0.876732
H  -1.363587   0.743743  -0.832787
H  -0.130615  -1.438412   1.008398
H   0.788029  -0.026777  -0.139204
H  -0.187424  -1.227176  -0.747072
