butane_opt
 OpenBabel08242015413D

 14 13  0  0  0  0  0  0  0  0999 V2000
   -3.9605    0.2704    0.0353 C   0  0  0  0  0  0  0  0  0  0  0  0
   -2.6940   -0.6340    0.0326 C   0  0  0  0  0  0  0  0  0  0  0  0
   -4.8431   -0.2909    0.0734 H   0  0  0  0  0  0  0  0  0  0  0  0
   -3.9906    0.9405   -0.8848 H   0  0  0  0  0  0  0  0  0  0  0  0
   -3.9941    0.9288    0.9020 H   0  0  0  0  0  0  0  0  0  0  0  0
   -1.3927    0.1808   -0.0119 C   0  0  0  0  0  0  0  0  0  0  0  0
   -2.7937   -1.3185   -0.8359 H   0  0  0  0  0  0  0  0  0  0  0  0
   -2.6875   -1.2304    0.8792 H   0  0  0  0  0  0  0  0  0  0  0  0
   -0.1554   -0.6880    0.0430 C   0  0  0  0  0  0  0  0  0  0  0  0
   -1.3889    0.8442    0.8268 H   0  0  0  0  0  0  0  0  0  0  0  0
   -1.3695    0.8681   -0.9543 H   0  0  0  0  0  0  0  0  0  0  0  0
   -0.2176   -1.2502    0.9267 H   0  0  0  0  0  0  0  0  0  0  0  0
    0.7774   -0.0931    0.1770 H   0  0  0  0  0  0  0  0  0  0  0  0
   -0.0905   -1.4196   -0.8667 H   0  0  0  0  0  0  0  0  0  0  0  0
  1  3  1  0  0  0  0
  1  5  1  0  0  0  0
  2  1  1  0  0  0  0
  2  8  1  0  0  0  0
  4  1  1  0  0  0  0
  6  2  1  0  0  0  0
  6  9  1  0  0  0  0
  6 10  1  0  0  0  0
  7  2  1  0  0  0  0
  9 13  1  0  0  0  0
  9 12  1  0  0  0  0
 11  6  1  0  0  0  0
 14  9  1  0  0  0  0
M  END
$$$$
