14
butane_opt
C  -3.948382   0.258106  -0.004129
C  -2.714364  -0.606748   0.043227
H  -4.858615  -0.344971   0.053320
H  -3.924752   0.914660  -0.945293
H  -3.979242   0.881905   0.840464
C  -1.404230   0.199627   0.050774
H  -2.725231  -1.273892  -0.795756
H  -2.733030  -1.294381   0.976391
C  -0.150109  -0.702699   0.009520
H  -1.330700   0.919621   0.949627
H  -1.396593   0.783676  -0.830730
H  -0.011244  -1.347073   0.925570
H   0.714758  -0.166844  -0.115143
H  -0.171018  -1.319537  -0.809046
