14
butane_opt
C  -3.950233   0.274858  -0.001360
C  -2.699448  -0.627684   0.052628
H  -4.849116  -0.328748  -0.000425
H  -3.987504   0.869481  -0.882403
H  -3.973138   0.944586   0.827759
C  -1.405891   0.187876   0.039643
H  -2.636635  -1.330448  -0.812687
H  -2.749030  -1.282500   0.964773
C  -0.159611  -0.689915   0.015840
H  -1.335617   0.899403   0.920048
H  -1.382981   0.764397  -0.845996
H  -0.066532  -1.360083   0.943537
H   0.745869  -0.097020  -0.139488
H  -0.208883  -1.285976  -0.805989
