14
butane_opt
C  -3.931834   0.275648   0.001145
C  -2.697453  -0.624708   0.048428
H  -4.855904  -0.337697   0.148290
H  -4.019897   1.062126  -1.022977
H  -3.958591   0.811145   0.779867
C  -1.401209   0.166115   0.041243
H  -2.695035  -1.266855  -0.762657
H  -2.738768  -1.266509   0.955062
C  -0.168935  -0.682490   0.012916
H  -1.391091   0.904068   0.905929
H  -1.389392   0.729587  -0.802904
H  -0.157279  -1.214132   0.849399
H   0.748227  -0.084101   0.028685
H  -0.170692  -1.420572  -0.909362
