butane_opt
 OpenBabel08242015413D

 14 13  0  0  0  0  0  0  0  0999 V2000
   -3.9417    0.2637   -0.0152 C   0  0  0  0  0  0  0  0  0  0  0  0
   -2.7093   -0.6044    0.0705 C   0  0  0  0  0  0  0  0  0  0  0  0
   -4.8456   -0.3296   -0.0012 H   0  0  0  0  0  0  0  0  0  0  0  0
   -3.9491    0.8397   -0.9125 H   0  0  0  0  0  0  0  0  0  0  0  0
   -4.0472    0.9175    0.8107 H   0  0  0  0  0  0  0  0  0  0  0  0
   -1.4020    0.1835    0.0542 C   0  0  0  0  0  0  0  0  0  0  0  0
   -2.7164   -1.2668   -0.7704 H   0  0  0  0  0  0  0  0  0  0  0  0
   -2.7383   -1.2420    0.9627 H   0  0  0  0  0  0  0  0  0  0  0  0
   -0.1517   -0.7018    0.0059 C   0  0  0  0  0  0  0  0  0  0  0  0
   -1.3557    0.8681    0.8806 H   0  0  0  0  0  0  0  0  0  0  0  0
   -1.3996    0.8097   -0.8380 H   0  0  0  0  0  0  0  0  0  0  0  0
   -0.0496   -1.3121    0.8826 H   0  0  0  0  0  0  0  0  0  0  0  0
    0.7806   -0.0791   -0.0939 H   0  0  0  0  0  0  0  0  0  0  0  0
   -0.2416   -1.3702   -0.8600 H   0  0  0  0  0  0  0  0  0  0  0  0
  1  3  1  0  0  0  0
  1  2  1  0  0  0  0
  1  5  1  0  0  0  0
  2  8  1  0  0  0  0
  4  1  1  0  0  0  0
  6  2  1  0  0  0  0
  6 10  1  0  0  0  0
  7  2  1  0  0  0  0
  9  6  1  0  0  0  0
  9 12  1  0  0  0  0
 11  6  1  0  0  0  0
 13  9  1  0  0  0  0
 14  9  1  0  0  0  0
M  END
$$$$
