14
butane_opt
C  -3.929847   0.248364  -0.013698
C  -2.698662  -0.600820   0.074542
H  -4.843901  -0.352116  -0.034406
H  -3.895770   0.891650  -0.916296
H  -4.006651   0.874144   0.816786
C  -1.408701   0.194807   0.053965
H  -2.692562  -1.265808  -0.780101
H  -2.737332  -1.212066   0.943512
C  -0.166759  -0.700641  -0.002301
H  -1.356955   0.908255   0.917231
H  -1.490495   0.847583  -0.823424
H  -0.060134  -1.352664   0.893825
H   0.711050  -0.162077  -0.073316
H  -0.194249  -1.359314  -0.848559
