butane_opt
 OpenBabel08242015413D

 14 13  0  0  0  0  0  0  0  0999 V2000
   -3.9585    0.2793    0.0243 C   0  0  0  0  0  0  0  0  0  0  0  0
   -2.7034   -0.6335    0.0170 C   0  0  0  0  0  0  0  0  0  0  0  0
   -4.8668   -0.3226    0.1873 H   0  0  0  0  0  0  0  0  0  0  0  0
   -4.0885    0.9935   -0.9395 H   0  0  0  0  0  0  0  0  0  0  0  0
   -3.8964    0.8854    0.8816 H   0  0  0  0  0  0  0  0  0  0  0  0
   -1.3945    0.1768    0.0032 C   0  0  0  0  0  0  0  0  0  0  0  0
   -2.7072   -1.3175   -0.8480 H   0  0  0  0  0  0  0  0  0  0  0  0
   -2.6745   -1.2870    0.9078 H   0  0  0  0  0  0  0  0  0  0  0  0
   -0.1619   -0.6874    0.0445 C   0  0  0  0  0  0  0  0  0  0  0  0
   -1.4119    0.8863    0.8950 H   0  0  0  0  0  0  0  0  0  0  0  0
   -1.3035    0.7740   -0.8796 H   0  0  0  0  0  0  0  0  0  0  0  0
   -0.1450   -1.2560    0.9305 H   0  0  0  0  0  0  0  0  0  0  0  0
    0.7885   -0.0570    0.0283 H   0  0  0  0  0  0  0  0  0  0  0  0
   -0.1049   -1.3776   -0.8120 H   0  0  0  0  0  0  0  0  0  0  0  0
  1  3  1  0  0  0  0
  1  5  1  0  0  0  0
  2  1  1  0  0  0  0
  2  8  1  0  0  0  0
  4  1  1  0  0  0  0
  6  2  1  0  0  0  0
  6  9  1  0  0  0  0
  6 10  1  0  0  0  0
  7  2  1  0  0  0  0
  9 12  1  0  0  0  0
 11  6  1  0  0  0  0
 13  9  1  0  0  0  0
 14  9  1  0  0  0  0
M  END
$$$$
