butane_opt
 OpenBabel08242015413D

 14 13  0  0  0  0  0  0  0  0999 V2000
   -3.9299    0.2602    0.0126 C   0  0  0  0  0  0  0  0  0  0  0  0
   -2.7068   -0.6038    0.0527 C   0  0  0  0  0  0  0  0  0  0  0  0
   -4.8438   -0.3656    0.0393 H   0  0  0  0  0  0  0  0  0  0  0  0
   -3.8997    0.9268   -0.9417 H   0  0  0  0  0  0  0  0  0  0  0  0
   -3.9735    0.8435    0.8020 H   0  0  0  0  0  0  0  0  0  0  0  0
   -1.4154    0.1936    0.0221 C   0  0  0  0  0  0  0  0  0  0  0  0
   -2.7560   -1.2727   -0.7582 H   0  0  0  0  0  0  0  0  0  0  0  0
   -2.7134   -1.2255    0.9383 H   0  0  0  0  0  0  0  0  0  0  0  0
   -0.1613   -0.7093    0.0210 C   0  0  0  0  0  0  0  0  0  0  0  0
   -1.3634    0.8725    0.8808 H   0  0  0  0  0  0  0  0  0  0  0  0
   -1.4141    0.8341   -0.8689 H   0  0  0  0  0  0  0  0  0  0  0  0
   -0.1609   -1.2226    0.8511 H   0  0  0  0  0  0  0  0  0  0  0  0
    0.7648   -0.0865    0.0498 H   0  0  0  0  0  0  0  0  0  0  0  0
   -0.1049   -1.4651   -0.8756 H   0  0  0  0  0  0  0  0  0  0  0  0
  1  3  1  0  0  0  0
  1  2  1  0  0  0  0
  1  5  1  0  0  0  0
  2  8  1  0  0  0  0
  4  1  1  0  0  0  0
  6  2  1  0  0  0  0
  6 10  1  0  0  0  0
  7  2  1  0  0  0  0
  9  6  1  0  0  0  0
  9 13  1  0  0  0  0
  9 12  1  0  0  0  0
 11  6  1  0  0  0  0
 14  9  1  0  0  0  0
M  END
$$$$
