butane_opt
 OpenBabel08242015413D

 14 13  0  0  0  0  0  0  0  0999 V2000
   -3.9513    0.2691    0.0259 C   0  0  0  0  0  0  0  0  0  0  0  0
   -2.7003   -0.6274    0.0361 C   0  0  0  0  0  0  0  0  0  0  0  0
   -4.8396   -0.2948    0.0719 H   0  0  0  0  0  0  0  0  0  0  0  0
   -4.0194    0.8557   -0.8523 H   0  0  0  0  0  0  0  0  0  0  0  0
   -3.9787    0.9833    0.9268 H   0  0  0  0  0  0  0  0  0  0  0  0
   -1.3949    0.1830   -0.0192 C   0  0  0  0  0  0  0  0  0  0  0  0
   -2.7056   -1.3163   -0.8194 H   0  0  0  0  0  0  0  0  0  0  0  0
   -2.6865   -1.2566    0.9247 H   0  0  0  0  0  0  0  0  0  0  0  0
   -0.1643   -0.6835    0.0444 C   0  0  0  0  0  0  0  0  0  0  0  0
   -1.3565    0.8726    0.8438 H   0  0  0  0  0  0  0  0  0  0  0  0
   -1.3407    0.8303   -0.9073 H   0  0  0  0  0  0  0  0  0  0  0  0
   -0.2234   -1.3279    0.9322 H   0  0  0  0  0  0  0  0  0  0  0  0
    0.7438   -0.1020    0.1284 H   0  0  0  0  0  0  0  0  0  0  0  0
   -0.0844   -1.4126   -0.8533 H   0  0  0  0  0  0  0  0  0  0  0  0
  1  2  1  0  0  0  0
  1  3  1  0  0  0  0
  1  5  1  0  0  0  0
  2  8  1  0  0  0  0
  4  1  1  0  0  0  0
  6  2  1  0  0  0  0
  6  9  1  0  0  0  0
  6 10  1  0  0  0  0
  7  2  1  0  0  0  0
  9 13  1  0  0  0  0
  9 12  1  0  0  0  0
 11  6  1  0  0  0  0
 14  9  1  0  0  0  0
M  END
$$$$
