14
butane_opt
C  -3.927188   0.250381   0.026510
C  -2.704634  -0.607059   0.012354
H  -4.838089  -0.363709   0.056031
H  -3.981059   0.875236  -0.876673
H  -3.855649   0.946739   0.924884
C  -1.421198   0.205055   0.009543
H  -2.755777  -1.257286  -0.837326
H  -2.678556  -1.239928   0.892131
C  -0.156294  -0.706823   0.048390
H  -1.465261   0.882872   0.868884
H  -1.400600   0.794026  -0.869523
H  -0.087347  -1.403300   0.962101
H   0.743456  -0.115158  -0.087214
H  -0.189945  -1.283346  -0.753872
