14
butane_opt
C  -3.943443   0.268916  -0.004579
C  -2.682958  -0.625950   0.062252
H  -4.811669  -0.251089   0.149997
H  -4.011954   1.012121  -0.995115
H  -3.939260   0.795414   0.772659
C  -1.407479   0.172614   0.038305
H  -2.683832  -1.323463  -0.822079
H  -2.744748  -1.235178   0.956705
C  -0.172290  -0.681456   0.004102
H  -1.366334   0.887341   0.919272
H  -1.409335   0.771064  -0.828053
H  -0.166027  -1.237971   0.878849
H   0.760075  -0.064754   0.078676
H  -0.183661  -1.425197  -0.887733
