butane_opt
 OpenBabel08242015413D

 14 13  0  0  0  0  0  0  0  0999 V2000
   -3.9490    0.2610    0.0355 C   0  0  0  0  0  0  0  0  0  0  0  0
   -2.7137   -0.6139    0.0187 C   0  0  0  0  0  0  0  0  0  0  0  0
   -4.8815   -0.3521   -0.0103 H   0  0  0  0  0  0  0  0  0  0  0  0
   -3.9731    0.7676   -0.8005 H   0  0  0  0  0  0  0  0  0  0  0  0
   -3.9592    1.0173    0.9358 H   0  0  0  0  0  0  0  0  0  0  0  0
   -1.4048    0.2013   -0.0143 C   0  0  0  0  0  0  0  0  0  0  0  0
   -2.6919   -1.2573   -0.7958 H   0  0  0  0  0  0  0  0  0  0  0  0
   -2.6930   -1.2602    0.9366 H   0  0  0  0  0  0  0  0  0  0  0  0
   -0.1469   -0.6984    0.0527 C   0  0  0  0  0  0  0  0  0  0  0  0
   -1.3736    0.8373    0.8192 H   0  0  0  0  0  0  0  0  0  0  0  0
   -1.3983    0.8315   -0.9261 H   0  0  0  0  0  0  0  0  0  0  0  0
   -0.1594   -1.3538    0.9593 H   0  0  0  0  0  0  0  0  0  0  0  0
    0.7591   -0.1135    0.0176 H   0  0  0  0  0  0  0  0  0  0  0  0
   -0.0777   -1.3932   -0.7977 H   0  0  0  0  0  0  0  0  0  0  0  0
  1  5  1  0  0  0  0
  2  1  1  0  0  0  0
  2  8  1  0  0  0  0
  3  1  1  0  0  0  0
  4  1  1  0  0  0  0
  6  2  1  0  0  0  0
  6  9  1  0  0  0  0
  6 10  1  0  0  0  0
  7  2  1  0  0  0  0
  9 12  1  0  0  0  0
 11  6  1  0  0  0  0
 13  9  1  0  0  0  0
 14  9  1  0  0  0  0
M  END
$$$$
