14
butane_opt
C  -3.942215   0.257324  -0.008425
C  -2.694393  -0.609492   0.060042
H  -4.830057  -0.333606  -0.041185
H  -3.914323   0.881408  -0.912410
H  -3.952455   0.895245   0.819994
C  -1.408610   0.194191   0.052252
H  -2.657647  -1.291734  -0.798836
H  -2.704329  -1.253471   0.982023
C  -0.174510  -0.697024   0.008751
H  -1.381388   0.894973   0.925603
H  -1.411702   0.824712  -0.820793
H  -0.014912  -1.364642   0.919862
H   0.744522  -0.110029  -0.152056
H  -0.264969  -1.351902  -0.834873
