14
butane_opt
C  -3.966480   0.282243   0.002245
C  -2.697999  -0.625509   0.050327
H  -4.865195  -0.300907   0.185636
H  -4.000315   0.993061  -0.969443
H  -3.933673   0.835284   0.783651
C  -1.389720   0.164383   0.030766
H  -2.702781  -1.352936  -0.843550
H  -2.742834  -1.245870   0.939667
C  -0.158971  -0.680476   0.017852
H  -1.350629   0.863525   0.914226
H  -1.369166   0.764524  -0.850377
H  -0.138119  -1.249200   0.896339
H   0.748283  -0.074083   0.044071
H  -0.124661  -1.382647  -0.885130
