butane_opt
 OpenBabel08242015413D

 14 13  0  0  0  0  0  0  0  0999 V2000
   -3.9489    0.2541    0.0076 C   0  0  0  0  0  0  0  0  0  0  0  0
   -2.7021   -0.6102    0.0490 C   0  0  0  0  0  0  0  0  0  0  0  0
   -4.8660   -0.3536    0.1196 H   0  0  0  0  0  0  0  0  0  0  0  0
   -3.9324    1.0214   -0.9710 H   0  0  0  0  0  0  0  0  0  0  0  0
   -3.9424    0.7681    0.7637 H   0  0  0  0  0  0  0  0  0  0  0  0
   -1.4039    0.2121    0.0381 C   0  0  0  0  0  0  0  0  0  0  0  0
   -2.7288   -1.3066   -0.8008 H   0  0  0  0  0  0  0  0  0  0  0  0
   -2.7560   -1.2069    0.9189 H   0  0  0  0  0  0  0  0  0  0  0  0
   -0.1553   -0.7076    0.0128 C   0  0  0  0  0  0  0  0  0  0  0  0
   -1.3758    0.9180    0.8974 H   0  0  0  0  0  0  0  0  0  0  0  0
   -1.3936    0.7885   -0.8302 H   0  0  0  0  0  0  0  0  0  0  0  0
   -0.0909   -1.3107    0.9125 H   0  0  0  0  0  0  0  0  0  0  0  0
    0.7236   -0.1378    0.0225 H   0  0  0  0  0  0  0  0  0  0  0  0
   -0.1369   -1.4380   -0.8995 H   0  0  0  0  0  0  0  0  0  0  0  0
  1  2  1  0  0  0  0
  1  3  1  0  0  0  0
  1  5  1  0  0  0  0
  2  8  1  0  0  0  0
  4  1  1  0  0  0  0
  6  2  1  0  0  0  0
  6 10  1  0  0  0  0
  7  2  1  0  0  0  0
  9 13  1  0  0  0  0
  9  6  1  0  0  0  0
  9 12  1  0  0  0  0
 11  6  1  0  0  0  0
 14  9  1  0  0  0  0
M  END
$$$$
