butane_opt
 OpenBabel08242015413D

 14 13  0  0  0  0  0  0  0  0999 V2000
   -3.9206    0.2556    0.0211 C   0  0  0  0  0  0  0  0  0  0  0  0
   -2.7061   -0.6008    0.0497 C   0  0  0  0  0  0  0  0  0  0  0  0
   -4.8414   -0.3682    0.0106 H   0  0  0  0  0  0  0  0  0  0  0  0
   -3.9455    0.9125   -0.9175 H   0  0  0  0  0  0  0  0  0  0  0  0
   -3.9531    0.8450    0.8284 H   0  0  0  0  0  0  0  0  0  0  0  0
   -1.4099    0.1903    0.0078 C   0  0  0  0  0  0  0  0  0  0  0  0
   -2.7702   -1.2578   -0.8115 H   0  0  0  0  0  0  0  0  0  0  0  0
   -2.7058   -1.2314    0.9613 H   0  0  0  0  0  0  0  0  0  0  0  0
   -0.1666   -0.7050    0.0300 C   0  0  0  0  0  0  0  0  0  0  0  0
   -1.4027    0.8866    0.8791 H   0  0  0  0  0  0  0  0  0  0  0  0
   -1.4462    0.8704   -0.9038 H   0  0  0  0  0  0  0  0  0  0  0  0
   -0.1592   -1.2325    0.8617 H   0  0  0  0  0  0  0  0  0  0  0  0
    0.7312   -0.1369    0.1201 H   0  0  0  0  0  0  0  0  0  0  0  0
   -0.0879   -1.4520   -0.9107 H   0  0  0  0  0  0  0  0  0  0  0  0
  1  2  1  0  0  0  0
  1  5  1  0  0  0  0
  2  8  1  0  0  0  0
  3  1  1  0  0  0  0
  4  1  1  0  0  0  0
  6  9  1  0  0  0  0
  6  2  1  0  0  0  0
  6 10  1  0  0  0  0
  7  2  1  0  0  0  0
  9 13  1  0  0  0  0
  9 12  1  0  0  0  0
 11  6  1  0  0  0  0
 14  9  1  0  0  0  0
M  END
$$$$
