14
butane_opt
C  -3.939458   0.281095   0.028276
C  -2.696604  -0.636199   0.021978
H  -4.837424  -0.321096  -0.041498
H  -3.940668   0.758691  -0.762589
H  -3.976889   1.080932   0.960436
C  -1.395805   0.176822  -0.012083
H  -2.687978  -1.288778  -0.795920
H  -2.696159  -1.261395   0.933843
C  -0.178600  -0.675021   0.049806
H  -1.361566   0.820635   0.834465
H  -1.406752   0.800669  -0.912983
H  -0.159650  -1.393537   1.022053
H   0.734037  -0.101151  -0.043046
H  -0.174813  -1.324965  -0.787929
