14
butane_opt
C  -3.938055   0.276540   0.035555
C  -2.689023  -0.627801   0.010624
H  -4.833042  -0.327686   0.150327
H  -4.059769   0.929320  -0.860142
H  -3.866557   0.883107   0.879010
C  -1.414993   0.170967  -0.004537
H  -2.738210  -1.339001  -0.855687
H  -2.692652  -1.194975   0.856167
C  -0.169051  -0.687526   0.058057
H  -1.408823   0.824288   0.800996
H  -1.392335   0.852914  -0.939062
H  -0.160922  -1.264445   0.931055
H   0.793608  -0.046501   0.076779
H  -0.143059  -1.365838  -0.802720
