butane_opt
 OpenBabel08242015413D

 14 13  0  0  0  0  0  0  0  0999 V2000
   -3.9593    0.2655   -0.0116 C   0  0  0  0  0  0  0  0  0  0  0  0
   -2.7060   -0.6262    0.0632 C   0  0  0  0  0  0  0  0  0  0  0  0
   -4.8730   -0.3209   -0.0255 H   0  0  0  0  0  0  0  0  0  0  0  0
   -3.9071    0.9385   -0.9449 H   0  0  0  0  0  0  0  0  0  0  0  0
   -3.9994    0.9499    0.8669 H   0  0  0  0  0  0  0  0  0  0  0  0
   -1.4014    0.1854    0.0509 C   0  0  0  0  0  0  0  0  0  0  0  0
   -2.6454   -1.2919   -0.7742 H   0  0  0  0  0  0  0  0  0  0  0  0
   -2.7279   -1.2924    0.9970 H   0  0  0  0  0  0  0  0  0  0  0  0
   -0.1496   -0.6899    0.0047 C   0  0  0  0  0  0  0  0  0  0  0  0
   -1.3836    0.8877    0.9321 H   0  0  0  0  0  0  0  0  0  0  0  0
   -1.3827    0.8065   -0.8185 H   0  0  0  0  0  0  0  0  0  0  0  0
   -0.0300   -1.3354    0.8801 H   0  0  0  0  0  0  0  0  0  0  0  0
    0.7502   -0.0840   -0.1060 H   0  0  0  0  0  0  0  0  0  0  0  0
   -0.2299   -1.3442   -0.8541 H   0  0  0  0  0  0  0  0  0  0  0  0
  1  2  1  0  0  0  0
  1  5  1  0  0  0  0
  2  8  1  0  0  0  0
  3  1  1  0  0  0  0
  4  1  1  0  0  0  0
  6  2  1  0  0  0  0
  6 10  1  0  0  0  0
  7  2  1  0  0  0  0
  9  6  1  0  0  0  0
  9 12  1  0  0  0  0
 11  6  1  0  0  0  0
 13  9  1  0  0  0  0
 14  9  1  0  0  0  0
M  END
$$$$
