butane_opt
 OpenBabel08242015413D

 14 13  0  0  0  0  0  0  0  0999 V2000
   -3.9590    0.2728   -0.0004 C   0  0  0  0  0  0  0  0  0  0  0  0
   -2.7006   -0.6290    0.0493 C   0  0  0  0  0  0  0  0  0  0  0  0
   -4.8545   -0.2806    0.0687 H   0  0  0  0  0  0  0  0  0  0  0  0
   -4.0255    0.9622   -0.9378 H   0  0  0  0  0  0  0  0  0  0  0  0
   -3.9692    0.8704    0.8056 H   0  0  0  0  0  0  0  0  0  0  0  0
   -1.3886    0.1793    0.0346 C   0  0  0  0  0  0  0  0  0  0  0  0
   -2.6889   -1.2684   -0.7533 H   0  0  0  0  0  0  0  0  0  0  0  0
   -2.7548   -1.2777    0.9505 H   0  0  0  0  0  0  0  0  0  0  0  0
   -0.1516   -0.6870    0.0154 C   0  0  0  0  0  0  0  0  0  0  0  0
   -1.3919    0.9263    0.9227 H   0  0  0  0  0  0  0  0  0  0  0  0
   -1.3843    0.7301   -0.8158 H   0  0  0  0  0  0  0  0  0  0  0  0
   -0.1286   -1.2993    0.9134 H   0  0  0  0  0  0  0  0  0  0  0  0
    0.7814   -0.0662   -0.0523 H   0  0  0  0  0  0  0  0  0  0  0  0
   -0.2147   -1.3954   -0.8623 H   0  0  0  0  0  0  0  0  0  0  0  0
  1  2  1  0  0  0  0
  1  3  1  0  0  0  0
  1  5  1  0  0  0  0
  2  8  1  0  0  0  0
  4  1  1  0  0  0  0
  6  2  1  0  0  0  0
  6 10  1  0  0  0  0
  7  2  1  0  0  0  0
  9  6  1  0  0  0  0
  9 12  1  0  0  0  0
 11  6  1  0  0  0  0
 13  9  1  0  0  0  0
 14  9  1  0  0  0  0
M  END
$$$$
