butane_opt
 OpenBabel08242015413D

 14 13  0  0  0  0  0  0  0  0999 V2000
   -3.9345    0.2766   -0.0110 C   0  0  0  0  0  0  0  0  0  0  0  0
   -2.6934   -0.6282    0.0589 C   0  0  0  0  0  0  0  0  0  0  0  0
   -4.8312   -0.3130    0.1749 H   0  0  0  0  0  0  0  0  0  0  0  0
   -3.9953    1.0206   -0.9814 H   0  0  0  0  0  0  0  0  0  0  0  0
   -3.9620    0.8406    0.7713 H   0  0  0  0  0  0  0  0  0  0  0  0
   -1.3982    0.1653    0.0364 C   0  0  0  0  0  0  0  0  0  0  0  0
   -2.6539   -1.3084   -0.7508 H   0  0  0  0  0  0  0  0  0  0  0  0
   -2.7415   -1.2699    0.9682 H   0  0  0  0  0  0  0  0  0  0  0  0
   -0.1804   -0.6786    0.0033 C   0  0  0  0  0  0  0  0  0  0  0  0
   -1.3263    0.9554    0.9755 H   0  0  0  0  0  0  0  0  0  0  0  0
   -1.4242    0.7452   -0.8124 H   0  0  0  0  0  0  0  0  0  0  0  0
   -0.1957   -1.2572    0.8850 H   0  0  0  0  0  0  0  0  0  0  0  0
    0.7459   -0.0998    0.0506 H   0  0  0  0  0  0  0  0  0  0  0  0
   -0.1656   -1.4019   -0.9025 H   0  0  0  0  0  0  0  0  0  0  0  0
  1  2  1  0  0  0  0
  1  3  1  0  0  0  0
  1  5  1  0  0  0  0
  2  8  1  0  0  0  0
  4  1  1  0  0  0  0
  6  2  1  0  0  0  0
  6 10  1  0  0  0  0
  7  2  1  0  0  0  0
  9  6  1  0  0  0  0
  9 13  1  0  0  0  0
  9 12  1  0  0  0  0
 11  6  1  0  0  0  0
 14  9  1  0  0  0  0
M  END
$$$$
