14
butane_opt
C  -3.949466   0.279735   0.002972
C  -2.694590  -0.629163   0.052083
H  -4.852482  -0.300610   0.125071
H  -4.003653   0.960983  -0.931934
H  -3.963724   0.851360   0.803626
C  -1.401503   0.174094   0.024949
H  -2.729341  -1.309383  -0.803383
H  -2.676562  -1.300171   0.934861
C  -0.160582  -0.686225   0.026859
H  -1.406622   0.824903   0.858895
H  -1.403109   0.794960  -0.856974
H  -0.152099  -1.158763   0.832573
H   0.767437  -0.041211   0.062646
H  -0.139812  -1.443665  -0.891271
