14
butane_opt
C  -3.944796   0.262362  -0.020743
C  -2.707348  -0.618691   0.090631
H  -4.850034  -0.347551  -0.086590
H  -3.918912   0.834014  -0.914510
H  -4.019859   0.994971   0.877262
C  -1.403913   0.195339   0.036678
H  -2.679088  -1.231756  -0.712540
H  -2.834190  -1.275274   1.007399
C  -0.145674  -0.696136  -0.005954
H  -1.351149   0.883005   0.900393
H  -1.432611   0.795365  -0.809176
H  -0.075862  -1.302143   0.862163
H   0.725041  -0.124548   0.003547
H  -0.163057  -1.416600  -0.886097
