14
butane_opt
C  -3.937876   0.270350   0.030585
C  -2.694024  -0.626227   0.030578
H  -4.818708  -0.302092   0.068079
H  -3.970282   0.887246  -0.861868
H  -4.002946   0.974579   0.921585
C  -1.402849   0.178685  -0.011514
H  -2.715643  -1.300552  -0.837847
H  -2.683845  -1.283200   0.949802
C  -0.168016  -0.687622   0.046154
H  -1.416952   0.813974   0.806352
H  -1.349032   0.848609  -0.936022
H  -0.239036  -1.227320   0.895290
H   0.763429  -0.058620   0.133898
H  -0.152727  -1.444367  -0.853761
