butane_opt
 OpenBabel08242015413D

 14 13  0  0  0  0  0  0  0  0999 V2000
   -3.9462    0.2545    0.0112 C   0  0  0  0  0  0  0  0  0  0  0  0
   -2.7110   -0.6001    0.0451 C   0  0  0  0  0  0  0  0  0  0  0  0
   -4.8925   -0.3873    0.1401 H   0  0  0  0  0  0  0  0  0  0  0  0
   -3.9887    0.9371   -0.9211 H   0  0  0  0  0  0  0  0  0  0  0  0
   -3.9597    0.8821    0.8245 H   0  0  0  0  0  0  0  0  0  0  0  0
   -1.4054    0.1942    0.0136 C   0  0  0  0  0  0  0  0  0  0  0  0
   -2.7151   -1.3198   -0.8396 H   0  0  0  0  0  0  0  0  0  0  0  0
   -2.6976   -1.2315    0.9552 H   0  0  0  0  0  0  0  0  0  0  0  0
   -0.1465   -0.6999    0.0322 C   0  0  0  0  0  0  0  0  0  0  0  0
   -1.4243    0.8679    0.8619 H   0  0  0  0  0  0  0  0  0  0  0  0
   -1.3504    0.8290   -0.8766 H   0  0  0  0  0  0  0  0  0  0  0  0
   -0.0944   -1.2731    0.8836 H   0  0  0  0  0  0  0  0  0  0  0  0
    0.7169   -0.1276    0.0733 H   0  0  0  0  0  0  0  0  0  0  0  0
   -0.0986   -1.4444   -0.8987 H   0  0  0  0  0  0  0  0  0  0  0  0
  1  2  1  0  0  0  0
  1  3  1  0  0  0  0
  1  5  1  0  0  0  0
  2  8  1  0  0  0  0
  4  1  1  0  0  0  0
  6  9  1  0  0  0  0
  6  2  1  0  0  0  0
  6 10  1  0  0  0  0
  7  2  1  0  0  0  0
  9 13  1  0  0  0  0
  9 12  1  0  0  0  0
 11  6  1  0  0  0  0
 14  9  1  0  0  0  0
M  END
$$$$
