14
butane_opt
C  -3.930788   0.253505   0.000512
C  -2.700787  -0.600091   0.075946
H  -4.852391  -0.345455  -0.105838
H  -3.815287   0.782469  -0.878428
H  -4.039512   0.966622   0.871907
C  -1.417939   0.197912   0.021701
H  -2.666008  -1.280836  -0.756266
H  -2.714586  -1.239449   0.958507
C  -0.173358  -0.697729   0.014710
H  -1.373890   0.858705   0.881369
H  -1.417422   0.810666  -0.853944
H  -0.060680  -1.337531   0.903924
H   0.736470  -0.130694  -0.053754
H  -0.150162  -1.399012  -0.871616
