14
butane_opt
C  -3.966234   0.275461   0.049197
C  -2.695361  -0.628769  -0.002973
H  -4.828105  -0.300128   0.180216
H  -4.062911   0.954074  -0.852056
H  -3.908728   0.905305   0.907082
C  -1.393553   0.176762  -0.019533
H  -2.790635  -1.388466  -0.917449
H  -2.695789  -1.209021   0.827591
C  -0.151900  -0.687443   0.063140
H  -1.407074   0.843299   0.821609
H  -1.346400   0.833504  -0.926432
H  -0.173820  -1.362532   1.009782
H   0.798371  -0.050037   0.080298
H  -0.135144  -1.314493  -0.766922
