14
butane_opt
C  -3.967675   0.277537  -0.007775
C  -2.701682  -0.631047   0.060376
H  -4.876060  -0.336395   0.055962
H  -3.994690   0.992049  -0.973428
H  -3.967766   0.882250   0.813817
C  -1.391489   0.174774   0.042751
H  -2.647931  -1.324169  -0.757043
H  -2.726097  -1.275921   0.965744
C  -0.148950  -0.683140   0.010938
H  -1.360911   0.901323   0.926590
H  -1.379458   0.782203  -0.828651
H  -0.085491  -1.259470   0.874674
H   0.748742  -0.082704  -0.045381
H  -0.217557  -1.403817  -0.882497
