butane_opt
 OpenBabel08242015413D

 14 13  0  0  0  0  0  0  0  0999 V2000
   -3.9313    0.2571   -0.0068 C   0  0  0  0  0  0  0  0  0  0  0  0
   -2.7061   -0.6027    0.0564 C   0  0  0  0  0  0  0  0  0  0  0  0
   -4.8458   -0.3455    0.0012 H   0  0  0  0  0  0  0  0  0  0  0  0
   -3.8938    0.9188   -0.9337 H   0  0  0  0  0  0  0  0  0  0  0  0
   -3.9852    0.8675    0.8083 H   0  0  0  0  0  0  0  0  0  0  0  0
   -1.4094    0.1897    0.0504 C   0  0  0  0  0  0  0  0  0  0  0  0
   -2.7021   -1.2588   -0.7511 H   0  0  0  0  0  0  0  0  0  0  0  0
   -2.7318   -1.2329    0.9717 H   0  0  0  0  0  0  0  0  0  0  0  0
   -0.1631   -0.7104   -0.0018 C   0  0  0  0  0  0  0  0  0  0  0  0
   -1.3900    0.9345    0.9674 H   0  0  0  0  0  0  0  0  0  0  0  0
   -1.4238    0.7589   -0.8098 H   0  0  0  0  0  0  0  0  0  0  0  0
   -0.0586   -1.3610    0.9044 H   0  0  0  0  0  0  0  0  0  0  0  0
    0.7545   -0.0676   -0.0865 H   0  0  0  0  0  0  0  0  0  0  0  0
   -0.2273   -1.2869   -0.8099 H   0  0  0  0  0  0  0  0  0  0  0  0
  1  3  1  0  0  0  0
  1  2  1  0  0  0  0
  1  5  1  0  0  0  0
  2  8  1  0  0  0  0
  4  1  1  0  0  0  0
  6  2  1  0  0  0  0
  6 10  1  0  0  0  0
  7  2  1  0  0  0  0
  9  6  1  0  0  0  0
  9 12  1  0  0  0  0
 11  6  1  0  0  0  0
 13  9  1  0  0  0  0
 14  9  1  0  0  0  0
M  END
$$$$
