butane_opt
 OpenBabel08242015413D

 14 13  0  0  0  0  0  0  0  0999 V2000
   -3.9414    0.2688    0.0503 C   0  0  0  0  0  0  0  0  0  0  0  0
   -2.6989   -0.6266   -0.0038 C   0  0  0  0  0  0  0  0  0  0  0  0
   -4.7891   -0.2975    0.0721 H   0  0  0  0  0  0  0  0  0  0  0  0
   -4.0277    0.9261   -0.8589 H   0  0  0  0  0  0  0  0  0  0  0  0
   -3.9170    0.9261    0.9097 H   0  0  0  0  0  0  0  0  0  0  0  0
   -1.4078    0.1730   -0.0123 C   0  0  0  0  0  0  0  0  0  0  0  0
   -2.6934   -1.3298   -0.8768 H   0  0  0  0  0  0  0  0  0  0  0  0
   -2.6845   -1.2391    0.8840 H   0  0  0  0  0  0  0  0  0  0  0  0
   -0.1669   -0.6842    0.0621 C   0  0  0  0  0  0  0  0  0  0  0  0
   -1.4382    0.8683    0.8648 H   0  0  0  0  0  0  0  0  0  0  0  0
   -1.3504    0.8110   -0.9064 H   0  0  0  0  0  0  0  0  0  0  0  0
   -0.1279   -1.3441    0.9820 H   0  0  0  0  0  0  0  0  0  0  0  0
    0.7450   -0.0848   -0.0372 H   0  0  0  0  0  0  0  0  0  0  0  0
   -0.1674   -1.2693   -0.7505 H   0  0  0  0  0  0  0  0  0  0  0  0
  1  3  1  0  0  0  0
  1  5  1  0  0  0  0
  2  1  1  0  0  0  0
  2  8  1  0  0  0  0
  4  1  1  0  0  0  0
  6  2  1  0  0  0  0
  6  9  1  0  0  0  0
  6 10  1  0  0  0  0
  7  2  1  0  0  0  0
  9 12  1  0  0  0  0
 11  6  1  0  0  0  0
 13  9  1  0  0  0  0
 14  9  1  0  0  0  0
M  END
$$$$
