14
butane_opt
C  -3.952315   0.254635   0.048749
C  -2.708000  -0.598106   0.005324
H  -4.868554  -0.357514   0.102415
H  -4.009083   0.864431  -0.825005
H  -3.877341   0.954647   0.942588
C  -1.408010   0.185954  -0.031191
H  -2.775284  -1.282826  -0.854967
H  -2.677620  -1.240431   0.871339
C  -0.147984  -0.701485   0.061278
H  -1.363250   0.863419   0.820040
H  -1.345464   0.856079  -0.949968
H  -0.218765  -1.328069   0.975761
H   0.736928  -0.125659   0.148535
H  -0.025379  -1.374939  -0.801132
