14
butane_opt
C  -3.949261   0.272503   0.051384
C  -2.708379  -0.621789  -0.010337
H  -4.871760  -0.306365   0.166590
H  -4.065345   0.933444  -0.873757
H  -3.925510   0.901463   0.882526
C  -1.398648   0.174416  -0.016390
H  -2.775705  -1.313143  -0.878684
H  -2.714614  -1.211171   0.862218
C  -0.145089  -0.692125   0.069163
H  -1.403564   0.808163   0.836542
H  -1.352361   0.817371  -0.921455
H  -0.101269  -1.280186   0.953956
H   0.772477  -0.092638   0.048448
H  -0.170775  -1.318982  -0.763178
