butane_opt
 OpenBabel08242015413D

 14 13  0  0  0  0  0  0  0  0999 V2000
   -3.9403    0.2496    0.0498 C   0  0  0  0  0  0  0  0  0  0  0  0
   -2.7176   -0.5992    0.0152 C   0  0  0  0  0  0  0  0  0  0  0  0
   -4.8427   -0.3564    0.0823 H   0  0  0  0  0  0  0  0  0  0  0  0
   -3.9793    0.8520   -0.8261 H   0  0  0  0  0  0  0  0  0  0  0  0
   -3.9423    0.9400    0.9493 H   0  0  0  0  0  0  0  0  0  0  0  0
   -1.4115    0.1941   -0.0427 C   0  0  0  0  0  0  0  0  0  0  0  0
   -2.7945   -1.3077   -0.8723 H   0  0  0  0  0  0  0  0  0  0  0  0
   -2.6355   -1.1705    0.8753 H   0  0  0  0  0  0  0  0  0  0  0  0
   -0.1367   -0.7044    0.0702 C   0  0  0  0  0  0  0  0  0  0  0  0
   -1.4319    0.8152    0.7903 H   0  0  0  0  0  0  0  0  0  0  0  0
   -1.3972    0.8706   -0.9521 H   0  0  0  0  0  0  0  0  0  0  0  0
   -0.2097   -1.2586    0.9204 H   0  0  0  0  0  0  0  0  0  0  0  0
    0.7281   -0.1380    0.1479 H   0  0  0  0  0  0  0  0  0  0  0  0
   -0.0335   -1.4083   -0.7933 H   0  0  0  0  0  0  0  0  0  0  0  0
  1  3  1  0  0  0  0
  1  5  1  0  0  0  0
  2  1  1  0  0  0  0
  2  8  1  0  0  0  0
  4  1  1  0  0  0  0
  6  2  1  0  0  0  0
  6  9  1  0  0  0  0
  6 10  1  0  0  0  0
  7  2  1  0  0  0  0
  9 13  1  0  0  0  0
  9 12  1  0  0  0  0
 11  6  1  0  0  0  0
 14  9  1  0  0  0  0
M  END
$$$$
