14
butane_opt
C  -3.940452   0.265540   0.002154
C  -2.693071  -0.614444   0.037365
H  -4.839314  -0.296739   0.124908
H  -3.978875   0.974455  -0.938704
H  -3.950817   0.923662   0.858386
C  -1.395309   0.161128   0.032089
H  -2.699972  -1.271367  -0.805831
H  -2.733948  -1.272747   0.967981
C  -0.174779  -0.686682   0.020790
H  -1.370652   0.862848   0.915359
H  -1.424181   0.807541  -0.840705
H  -0.164852  -1.291670   0.894676
H   0.774806  -0.035943   0.001791
H  -0.195230  -1.371769  -0.850103
