butane_opt
 OpenBabel08242015413D

 14 13  0  0  0  0  0  0  0  0999 V2000
   -3.9394    0.2611    0.0345 C   0  0  0  0  0  0  0  0  0  0  0  0
   -2.7093   -0.6164    0.0213 C   0  0  0  0  0  0  0  0  0  0  0  0
   -4.8583   -0.3462   -0.0442 H   0  0  0  0  0  0  0  0  0  0  0  0
   -3.9570    0.7336   -0.7785 H   0  0  0  0  0  0  0  0  0  0  0  0
   -4.0310    1.0195    0.9618 H   0  0  0  0  0  0  0  0  0  0  0  0
   -1.4042    0.1946   -0.0138 C   0  0  0  0  0  0  0  0  0  0  0  0
   -2.7882   -1.2758   -0.8262 H   0  0  0  0  0  0  0  0  0  0  0  0
   -2.6610   -1.2240    0.8825 H   0  0  0  0  0  0  0  0  0  0  0  0
   -0.1492   -0.6958    0.0559 C   0  0  0  0  0  0  0  0  0  0  0  0
   -1.4249    0.8998    0.8168 H   0  0  0  0  0  0  0  0  0  0  0  0
   -1.3986    0.8329   -0.9111 H   0  0  0  0  0  0  0  0  0  0  0  0
   -0.0735   -1.4150    0.9976 H   0  0  0  0  0  0  0  0  0  0  0  0
    0.7030   -0.1494   -0.0758 H   0  0  0  0  0  0  0  0  0  0  0  0
   -0.1033   -1.2790   -0.7414 H   0  0  0  0  0  0  0  0  0  0  0  0
  1  5  1  0  0  0  0
  2  1  1  0  0  0  0
  2  8  1  0  0  0  0
  3  1  1  0  0  0  0
  4  1  1  0  0  0  0
  6  2  1  0  0  0  0
  6  9  1  0  0  0  0
  6 10  1  0  0  0  0
  7  2  1  0  0  0  0
  9 12  1  0  0  0  0
 11  6  1  0  0  0  0
 13  9  1  0  0  0  0
 14  9  1  0  0  0  0
M  END
$$$$
