butane_opt
 OpenBabel08242015413D

 14 13  0  0  0  0  0  0  0  0999 V2000
   -3.9493    0.2559    0.0192 C   0  0  0  0  0  0  0  0  0  0  0  0
   -2.7082   -0.6095    0.0452 C   0  0  0  0  0  0  0  0  0  0  0  0
   -4.9050   -0.3679   -0.0943 H   0  0  0  0  0  0  0  0  0  0  0  0
   -3.9408    0.7994   -0.8331 H   0  0  0  0  0  0  0  0  0  0  0  0
   -3.9520    1.0274    0.9638 H   0  0  0  0  0  0  0  0  0  0  0  0
   -1.4055    0.2004    0.0007 C   0  0  0  0  0  0  0  0  0  0  0  0
   -2.7413   -1.2469   -0.7949 H   0  0  0  0  0  0  0  0  0  0  0  0
   -2.7762   -1.2370    0.9310 H   0  0  0  0  0  0  0  0  0  0  0  0
   -0.1377   -0.7065    0.0323 C   0  0  0  0  0  0  0  0  0  0  0  0
   -1.4114    0.8681    0.8347 H   0  0  0  0  0  0  0  0  0  0  0  0
   -1.3948    0.8290   -0.8701 H   0  0  0  0  0  0  0  0  0  0  0  0
   -0.1147   -1.3587    0.9648 H   0  0  0  0  0  0  0  0  0  0  0  0
    0.7655   -0.1484   -0.0294 H   0  0  0  0  0  0  0  0  0  0  0  0
   -0.1338   -1.3293   -0.7921 H   0  0  0  0  0  0  0  0  0  0  0  0
  1  2  1  0  0  0  0
  1  5  1  0  0  0  0
  2  8  1  0  0  0  0
  3  1  1  0  0  0  0
  4  1  1  0  0  0  0
  6  9  1  0  0  0  0
  6  2  1  0  0  0  0
  6 10  1  0  0  0  0
  7  2  1  0  0  0  0
  9 12  1  0  0  0  0
 11  6  1  0  0  0  0
 13  9  1  0  0  0  0
 14  9  1  0  0  0  0
M  END
$$$$
