14
butane_opt
C  -3.945659   0.271913   0.008068
C  -2.692356  -0.630521   0.058047
H  -4.839235  -0.292124   0.029115
H  -3.974357   0.892228  -0.905274
H  -4.046113   0.942723   0.847981
C  -1.400545   0.173030   0.022060
H  -2.672367  -1.289456  -0.788909
H  -2.686737  -1.284289   0.973622
C  -0.169210  -0.684599   0.020137
H  -1.394775   0.858111   0.853953
H  -1.335965   0.849167  -0.925007
H  -0.162660  -1.205840   0.852393
H   0.736192  -0.067063   0.082565
H  -0.150850  -1.438577  -0.888325
