butane_opt
 OpenBabel08242015413D

 14 13  0  0  0  0  0  0  0  0999 V2000
   -3.9591    0.2669   -0.0012 C   0  0  0  0  0  0  0  0  0  0  0  0
   -2.6921   -0.6202    0.0740 C   0  0  0  0  0  0  0  0  0  0  0  0
   -4.8659   -0.3229   -0.0718 H   0  0  0  0  0  0  0  0  0  0  0  0
   -3.8547    0.8591   -0.9055 H   0  0  0  0  0  0  0  0  0  0  0  0
   -4.0354    0.9688    0.8613 H   0  0  0  0  0  0  0  0  0  0  0  0
   -1.4065    0.1807    0.0260 C   0  0  0  0  0  0  0  0  0  0  0  0
   -2.6848   -1.2688   -0.7398 H   0  0  0  0  0  0  0  0  0  0  0  0
   -2.7133   -1.2648    0.9952 H   0  0  0  0  0  0  0  0  0  0  0  0
   -0.1573   -0.6948    0.0056 C   0  0  0  0  0  0  0  0  0  0  0  0
   -1.3744    0.8602    0.8841 H   0  0  0  0  0  0  0  0  0  0  0  0
   -1.3838    0.7873   -0.8574 H   0  0  0  0  0  0  0  0  0  0  0  0
   -0.1422   -1.2220    0.8691 H   0  0  0  0  0  0  0  0  0  0  0  0
    0.7541   -0.0961    0.0183 H   0  0  0  0  0  0  0  0  0  0  0  0
   -0.1433   -1.3656   -0.8706 H   0  0  0  0  0  0  0  0  0  0  0  0
  1  2  1  0  0  0  0
  1  5  1  0  0  0  0
  2  8  1  0  0  0  0
  3  1  1  0  0  0  0
  4  1  1  0  0  0  0
  6  2  1  0  0  0  0
  6 10  1  0  0  0  0
  7  2  1  0  0  0  0
  9 13  1  0  0  0  0
  9  6  1  0  0  0  0
  9 12  1  0  0  0  0
 11  6  1  0  0  0  0
 14  9  1  0  0  0  0
M  END
$$$$
