butane_opt
 OpenBabel08242015413D

 14 13  0  0  0  0  0  0  0  0999 V2000
   -3.9318    0.2484    0.0229 C   0  0  0  0  0  0  0  0  0  0  0  0
   -2.7048   -0.6028    0.0463 C   0  0  0  0  0  0  0  0  0  0  0  0
   -4.8668   -0.3617   -0.0459 H   0  0  0  0  0  0  0  0  0  0  0  0
   -3.9337    0.8121   -0.8235 H   0  0  0  0  0  0  0  0  0  0  0  0
   -3.9468    1.0443    0.9464 H   0  0  0  0  0  0  0  0  0  0  0  0
   -1.4040    0.1976   -0.0135 C   0  0  0  0  0  0  0  0  0  0  0  0
   -2.7144   -1.2655   -0.8081 H   0  0  0  0  0  0  0  0  0  0  0  0
   -2.7088   -1.2109    0.9396 H   0  0  0  0  0  0  0  0  0  0  0  0
   -0.1727   -0.7047    0.0355 C   0  0  0  0  0  0  0  0  0  0  0  0
   -1.3868    0.8810    0.8233 H   0  0  0  0  0  0  0  0  0  0  0  0
   -1.3946    0.7899   -0.8901 H   0  0  0  0  0  0  0  0  0  0  0  0
   -0.1689   -1.3377    0.9612 H   0  0  0  0  0  0  0  0  0  0  0  0
    0.7211   -0.1336    0.0292 H   0  0  0  0  0  0  0  0  0  0  0  0
   -0.0543   -1.3615   -0.7798 H   0  0  0  0  0  0  0  0  0  0  0  0
  1  2  1  0  0  0  0
  1  5  1  0  0  0  0
  2  8  1  0  0  0  0
  3  1  1  0  0  0  0
  4  1  1  0  0  0  0
  6  9  1  0  0  0  0
  6  2  1  0  0  0  0
  6 10  1  0  0  0  0
  7  2  1  0  0  0  0
  9 12  1  0  0  0  0
 11  6  1  0  0  0  0
 13  9  1  0  0  0  0
 14  9  1  0  0  0  0
M  END
$$$$
