14
butane_opt
C  -3.944602   0.268678  -0.016991
C  -2.686676  -0.609106   0.065205
H  -4.858442  -0.327105   0.019695
H  -3.960957   0.911211  -0.922349
H  -3.970232   0.884462   0.817745
C  -1.401747   0.167695   0.062092
H  -2.651160  -1.336064  -0.781137
H  -2.734028  -1.248799   0.969821
C  -0.168415  -0.683949  -0.002765
H  -1.400828   0.870282   0.930720
H  -1.404498   0.810007  -0.828816
H  -0.134287  -1.341089   0.936069
H   0.738216  -0.089970  -0.123018
H  -0.230162  -1.322914  -0.875471
