butane_opt
 OpenBabel08242015413D

 14 13  0  0  0  0  0  0  0  0999 V2000
   -3.9287    0.2574    0.0331 C   0  0  0  0  0  0  0  0  0  0  0  0
   -2.7037   -0.5997    0.0100 C   0  0  0  0  0  0  0  0  0  0  0  0
   -4.8640   -0.3742   -0.0143 H   0  0  0  0  0  0  0  0  0  0  0  0
   -3.9443    0.8090   -0.8179 H   0  0  0  0  0  0  0  0  0  0  0  0
   -3.8798    0.9798    0.9763 H   0  0  0  0  0  0  0  0  0  0  0  0
   -1.4134    0.1913   -0.0024 C   0  0  0  0  0  0  0  0  0  0  0  0
   -2.7652   -1.2790   -0.8287 H   0  0  0  0  0  0  0  0  0  0  0  0
   -2.7438   -1.2199    0.8764 H   0  0  0  0  0  0  0  0  0  0  0  0
   -0.1597   -0.7068    0.0531 C   0  0  0  0  0  0  0  0  0  0  0  0
   -1.4721    0.9186    0.8739 H   0  0  0  0  0  0  0  0  0  0  0  0
   -1.3652    0.8152   -0.9044 H   0  0  0  0  0  0  0  0  0  0  0  0
   -0.0829   -1.4644    1.0423 H   0  0  0  0  0  0  0  0  0  0  0  0
    0.7678   -0.1009   -0.1408 H   0  0  0  0  0  0  0  0  0  0  0  0
   -0.2121   -1.2595   -0.7380 H   0  0  0  0  0  0  0  0  0  0  0  0
  1  5  1  0  0  0  0
  2  1  1  0  0  0  0
  2  8  1  0  0  0  0
  3  1  1  0  0  0  0
  4  1  1  0  0  0  0
  6  2  1  0  0  0  0
  6  9  1  0  0  0  0
  6 10  1  0  0  0  0
  7  2  1  0  0  0  0
  9 12  1  0  0  0  0
 11  6  1  0  0  0  0
 13  9  1  0  0  0  0
 14  9  1  0  0  0  0
M  END
$$$$
