butane_opt
 OpenBabel08242015413D

 14 13  0  0  0  0  0  0  0  0999 V2000
   -3.9476    0.2735    0.0100 C   0  0  0  0  0  0  0  0  0  0  0  0
   -2.6988   -0.6305    0.0474 C   0  0  0  0  0  0  0  0  0  0  0  0
   -4.8490   -0.3265    0.0720 H   0  0  0  0  0  0  0  0  0  0  0  0
   -4.0243    0.9532   -0.9456 H   0  0  0  0  0  0  0  0  0  0  0  0
   -3.9398    0.8831    0.8179 H   0  0  0  0  0  0  0  0  0  0  0  0
   -1.4042    0.1907    0.0187 C   0  0  0  0  0  0  0  0  0  0  0  0
   -2.7498   -1.3129   -0.7912 H   0  0  0  0  0  0  0  0  0  0  0  0
   -2.7401   -1.2896    0.9587 H   0  0  0  0  0  0  0  0  0  0  0  0
   -0.1566   -0.6917    0.0307 C   0  0  0  0  0  0  0  0  0  0  0  0
   -1.3843    0.8582    0.8683 H   0  0  0  0  0  0  0  0  0  0  0  0
   -1.4200    0.8154   -0.8584 H   0  0  0  0  0  0  0  0  0  0  0  0
   -0.0901   -1.2132    0.8676 H   0  0  0  0  0  0  0  0  0  0  0  0
    0.7833   -0.0877    0.0582 H   0  0  0  0  0  0  0  0  0  0  0  0
   -0.1333   -1.4462   -0.9065 H   0  0  0  0  0  0  0  0  0  0  0  0
  1  2  1  0  0  0  0
  1  3  1  0  0  0  0
  1  5  1  0  0  0  0
  2  8  1  0  0  0  0
  4  1  1  0  0  0  0
  6  9  1  0  0  0  0
  6  2  1  0  0  0  0
  6 10  1  0  0  0  0
  7  2  1  0  0  0  0
  9 13  1  0  0  0  0
  9 12  1  0  0  0  0
 11  6  1  0  0  0  0
 14  9  1  0  0  0  0
M  END
$$$$
