butane_opt
 OpenBabel08242015413D

 14 13  0  0  0  0  0  0  0  0999 V2000
   -3.9412    0.2672    0.0505 C   0  0  0  0  0  0  0  0  0  0  0  0
   -2.6932   -0.6143   -0.0029 C   0  0  0  0  0  0  0  0  0  0  0  0
   -4.8539   -0.3387    0.1541 H   0  0  0  0  0  0  0  0  0  0  0  0
   -4.0220    0.9243   -0.8769 H   0  0  0  0  0  0  0  0  0  0  0  0
   -3.8935    0.8537    0.9063 H   0  0  0  0  0  0  0  0  0  0  0  0
   -1.3992    0.1889   -0.0139 C   0  0  0  0  0  0  0  0  0  0  0  0
   -2.7916   -1.3331   -0.8998 H   0  0  0  0  0  0  0  0  0  0  0  0
   -2.6719   -1.1980    0.8354 H   0  0  0  0  0  0  0  0  0  0  0  0
   -0.1753   -0.6967    0.0650 C   0  0  0  0  0  0  0  0  0  0  0  0
   -1.3984    0.8245    0.7934 H   0  0  0  0  0  0  0  0  0  0  0  0
   -1.3658    0.8358   -0.9101 H   0  0  0  0  0  0  0  0  0  0  0  0
   -0.1634   -1.3125    0.9590 H   0  0  0  0  0  0  0  0  0  0  0  0
    0.7172   -0.1232    0.0536 H   0  0  0  0  0  0  0  0  0  0  0  0
   -0.0724   -1.3412   -0.7676 H   0  0  0  0  0  0  0  0  0  0  0  0
  1  3  1  0  0  0  0
  1  5  1  0  0  0  0
  2  1  1  0  0  0  0
  2  8  1  0  0  0  0
  4  1  1  0  0  0  0
  6  2  1  0  0  0  0
  6  9  1  0  0  0  0
  6 10  1  0  0  0  0
  7  2  1  0  0  0  0
  9 12  1  0  0  0  0
 11  6  1  0  0  0  0
 13  9  1  0  0  0  0
 14  9  1  0  0  0  0
M  END
$$$$
