butane_opt
 OpenBabel08242015413D

 14 13  0  0  0  0  0  0  0  0999 V2000
   -3.9410    0.2808    0.0350 C   0  0  0  0  0  0  0  0  0  0  0  0
   -2.6913   -0.6271    0.0001 C   0  0  0  0  0  0  0  0  0  0  0  0
   -4.8700   -0.3405    0.1868 H   0  0  0  0  0  0  0  0  0  0  0  0
   -4.0240    0.9144   -0.8705 H   0  0  0  0  0  0  0  0  0  0  0  0
   -3.8811    0.9063    0.8981 H   0  0  0  0  0  0  0  0  0  0  0  0
   -1.4029    0.1682   -0.0024 C   0  0  0  0  0  0  0  0  0  0  0  0
   -2.7256   -1.2906   -0.8517 H   0  0  0  0  0  0  0  0  0  0  0  0
   -2.6856   -1.2303    0.8819 H   0  0  0  0  0  0  0  0  0  0  0  0
   -0.1710   -0.6832    0.0527 C   0  0  0  0  0  0  0  0  0  0  0  0
   -1.3732    0.8111    0.8401 H   0  0  0  0  0  0  0  0  0  0  0  0
   -1.3639    0.8170   -0.8937 H   0  0  0  0  0  0  0  0  0  0  0  0
   -0.2182   -1.2957    0.9403 H   0  0  0  0  0  0  0  0  0  0  0  0
    0.7256   -0.1020    0.0561 H   0  0  0  0  0  0  0  0  0  0  0  0
   -0.1321   -1.3240   -0.7741 H   0  0  0  0  0  0  0  0  0  0  0  0
  1  3  1  0  0  0  0
  1  5  1  0  0  0  0
  2  1  1  0  0  0  0
  2  8  1  0  0  0  0
  4  1  1  0  0  0  0
  6  2  1  0  0  0  0
  6  9  1  0  0  0  0
  6 10  1  0  0  0  0
  7  2  1  0  0  0  0
  9 13  1  0  0  0  0
  9 12  1  0  0  0  0
 11  6  1  0  0  0  0
 14  9  1  0  0  0  0
M  END
$$$$
