butane_opt
 OpenBabel08242015413D

 14 13  0  0  0  0  0  0  0  0999 V2000
   -3.9348    0.2615   -0.0066 C   0  0  0  0  0  0  0  0  0  0  0  0
   -2.7160   -0.6152    0.0717 C   0  0  0  0  0  0  0  0  0  0  0  0
   -4.8468   -0.3226   -0.0251 H   0  0  0  0  0  0  0  0  0  0  0  0
   -3.9714    0.8623   -0.8781 H   0  0  0  0  0  0  0  0  0  0  0  0
   -4.0196    0.9547    0.8398 H   0  0  0  0  0  0  0  0  0  0  0  0
   -1.4019    0.1942    0.0222 C   0  0  0  0  0  0  0  0  0  0  0  0
   -2.7268   -1.2976   -0.7645 H   0  0  0  0  0  0  0  0  0  0  0  0
   -2.7588   -1.2738    1.0032 H   0  0  0  0  0  0  0  0  0  0  0  0
   -0.1494   -0.6975    0.0053 C   0  0  0  0  0  0  0  0  0  0  0  0
   -1.3865    0.9115    0.8916 H   0  0  0  0  0  0  0  0  0  0  0  0
   -1.4189    0.7887   -0.8142 H   0  0  0  0  0  0  0  0  0  0  0  0
   -0.0954   -1.3085    0.9069 H   0  0  0  0  0  0  0  0  0  0  0  0
    0.7454   -0.1209    0.0288 H   0  0  0  0  0  0  0  0  0  0  0  0
   -0.1157   -1.3847   -0.8600 H   0  0  0  0  0  0  0  0  0  0  0  0
  1  2  1  0  0  0  0
  1  5  1  0  0  0  0
  2  8  1  0  0  0  0
  3  1  1  0  0  0  0
  4  1  1  0  0  0  0
  6  2  1  0  0  0  0
  6 10  1  0  0  0  0
  7  2  1  0  0  0  0
  9  6  1  0  0  0  0
  9 13  1  0  0  0  0
  9 12  1  0  0  0  0
 11  6  1  0  0  0  0
 14  9  1  0  0  0  0
M  END
$$$$
