butane_opt
 OpenBabel08242015413D

 14 13  0  0  0  0  0  0  0  0999 V2000
   -3.9389    0.2605    0.0477 C   0  0  0  0  0  0  0  0  0  0  0  0
   -2.7015   -0.6121    0.0046 C   0  0  0  0  0  0  0  0  0  0  0  0
   -4.8635   -0.3412    0.1005 H   0  0  0  0  0  0  0  0  0  0  0  0
   -4.0114    0.8859   -0.8440 H   0  0  0  0  0  0  0  0  0  0  0  0
   -3.9083    0.9302    0.9301 H   0  0  0  0  0  0  0  0  0  0  0  0
   -1.4115    0.1848   -0.0243 C   0  0  0  0  0  0  0  0  0  0  0  0
   -2.6844   -1.3190   -0.8646 H   0  0  0  0  0  0  0  0  0  0  0  0
   -2.6994   -1.2222    0.8880 H   0  0  0  0  0  0  0  0  0  0  0  0
   -0.1599   -0.6903    0.0592 C   0  0  0  0  0  0  0  0  0  0  0  0
   -1.3885    0.8882    0.8127 H   0  0  0  0  0  0  0  0  0  0  0  0
   -1.3721    0.7972   -0.9076 H   0  0  0  0  0  0  0  0  0  0  0  0
   -0.1642   -1.3404    0.9800 H   0  0  0  0  0  0  0  0  0  0  0  0
    0.7217   -0.1632    0.0772 H   0  0  0  0  0  0  0  0  0  0  0  0
   -0.1032   -1.3064   -0.7677 H   0  0  0  0  0  0  0  0  0  0  0  0
  1  3  1  0  0  0  0
  1  5  1  0  0  0  0
  2  1  1  0  0  0  0
  2  8  1  0  0  0  0
  4  1  1  0  0  0  0
  6  2  1  0  0  0  0
  6  9  1  0  0  0  0
  6 10  1  0  0  0  0
  7  2  1  0  0  0  0
  9 13  1  0  0  0  0
  9 12  1  0  0  0  0
 11  6  1  0  0  0  0
 14  9  1  0  0  0  0
M  END
$$$$
