14
butane_opt
C  -3.936262   0.266983  -0.016302
C  -2.689100  -0.619810   0.071241
H  -4.847460  -0.324518   0.033557
H  -3.961336   0.914721  -0.927280
H  -3.983901   0.942267   0.832881
C  -1.412972   0.163637   0.032021
H  -2.721520  -1.228122  -0.717641
H  -2.722368  -1.290625   1.016941
C  -0.161324  -0.679835   0.006375
H  -1.390874   0.911631   0.927742
H  -1.421454   0.798353  -0.844147
H  -0.152900  -1.232332   0.852534
H   0.770026  -0.074987   0.053723
H  -0.198126  -1.464209  -0.921529
