butane_opt
 OpenBabel08242015413D

 14 13  0  0  0  0  0  0  0  0999 V2000
   -3.9443    0.2545    0.0064 C   0  0  0  0  0  0  0  0  0  0  0  0
   -2.6926   -0.6029    0.0606 C   0  0  0  0  0  0  0  0  0  0  0  0
   -4.8735   -0.3776    0.0602 H   0  0  0  0  0  0  0  0  0  0  0  0
   -3.8819    0.9496   -0.9304 H   0  0  0  0  0  0  0  0  0  0  0  0
   -3.9619    0.8518    0.8268 H   0  0  0  0  0  0  0  0  0  0  0  0
   -1.4055    0.1898    0.0219 C   0  0  0  0  0  0  0  0  0  0  0  0
   -2.7085   -1.2647   -0.7777 H   0  0  0  0  0  0  0  0  0  0  0  0
   -2.6928   -1.2164    0.9123 H   0  0  0  0  0  0  0  0  0  0  0  0
   -0.1654   -0.7018    0.0158 C   0  0  0  0  0  0  0  0  0  0  0  0
   -1.4354    0.8878    0.8831 H   0  0  0  0  0  0  0  0  0  0  0  0
   -1.4150    0.8195   -0.8608 H   0  0  0  0  0  0  0  0  0  0  0  0
   -0.1589   -1.2554    0.8812 H   0  0  0  0  0  0  0  0  0  0  0  0
    0.7333   -0.1080    0.0719 H   0  0  0  0  0  0  0  0  0  0  0  0
   -0.1329   -1.4404   -0.8979 H   0  0  0  0  0  0  0  0  0  0  0  0
  1  3  1  0  0  0  0
  1  2  1  0  0  0  0
  1  5  1  0  0  0  0
  2  8  1  0  0  0  0
  4  1  1  0  0  0  0
  6  2  1  0  0  0  0
  6 10  1  0  0  0  0
  7  2  1  0  0  0  0
  9  6  1  0  0  0  0
  9 13  1  0  0  0  0
  9 12  1  0  0  0  0
 11  6  1  0  0  0  0
 14  9  1  0  0  0  0
M  END
$$$$
