14
butane_opt
C  -3.934385   0.256075   0.026678
C  -2.719486  -0.614560   0.020294
H  -4.840550  -0.340687  -0.017273
H  -3.952490   0.831244  -0.848884
H  -3.980644   0.987378   0.918865
C  -1.408728   0.202855   0.010107
H  -2.695135  -1.269036  -0.807871
H  -2.749724  -1.269478   0.932714
C  -0.146747  -0.704614   0.038013
H  -1.412872   0.917957   0.898072
H  -1.375575   0.847568  -0.869810
H  -0.094287  -1.412410   0.998745
H   0.765760  -0.140176  -0.120093
H  -0.169762  -1.304315  -0.775764
