14
butane_opt
C  -3.934184   0.268661   0.036607
C  -2.693963  -0.628063   0.005435
H  -4.807740  -0.260361   0.031928
H  -3.999574   0.843660  -0.820300
H  -3.955623   0.989490   0.925821
C  -1.413055   0.166013  -0.004628
H  -2.689120  -1.314981  -0.833839
H  -2.683148  -1.229083   0.873803
C  -0.169471  -0.679369   0.052610
H  -1.416863   0.897649   0.872859
H  -1.372009   0.779363  -0.891983
H  -0.077199  -1.409413   1.025318
H   0.746569  -0.070740  -0.104315
H  -0.249159  -1.216230  -0.700450
