butane_opt
 OpenBabel08242015413D

 14 13  0  0  0  0  0  0  0  0999 V2000
   -3.9313    0.2634   -0.0095 C   0  0  0  0  0  0  0  0  0  0  0  0
   -2.7045   -0.6130    0.0559 C   0  0  0  0  0  0  0  0  0  0  0  0
   -4.8620   -0.3390    0.1650 H   0  0  0  0  0  0  0  0  0  0  0  0
   -4.0058    0.9930   -0.9930 H   0  0  0  0  0  0  0  0  0  0  0  0
   -3.8561    0.7657    0.7527 H   0  0  0  0  0  0  0  0  0  0  0  0
   -1.4045    0.1974    0.0494 C   0  0  0  0  0  0  0  0  0  0  0  0
   -2.6848   -1.2998   -0.7792 H   0  0  0  0  0  0  0  0  0  0  0  0
   -2.7507   -1.2218    0.9225 H   0  0  0  0  0  0  0  0  0  0  0  0
   -0.1739   -0.7033    0.0080 C   0  0  0  0  0  0  0  0  0  0  0  0
   -1.3724    0.8902    0.9249 H   0  0  0  0  0  0  0  0  0  0  0  0
   -1.4364    0.8127   -0.8136 H   0  0  0  0  0  0  0  0  0  0  0  0
   -0.0703   -1.2465    0.8533 H   0  0  0  0  0  0  0  0  0  0  0  0
    0.7384   -0.1335    0.0168 H   0  0  0  0  0  0  0  0  0  0  0  0
   -0.1577   -1.4217   -0.8728 H   0  0  0  0  0  0  0  0  0  0  0  0
  1  2  1  0  0  0  0
  1  3  1  0  0  0  0
  1  5  1  0  0  0  0
  2  8  1  0  0  0  0
  4  1  1  0  0  0  0
  6  2  1  0  0  0  0
  6 10  1  0  0  0  0
  7  2  1  0  0  0  0
  9 13  1  0  0  0  0
  9  6  1  0  0  0  0
  9 12  1  0  0  0  0
 11  6  1  0  0  0  0
 14  9  1  0  0  0  0
M  END
$$$$
