butane_opt
 OpenBabel08242015413D

 14 13  0  0  0  0  0  0  0  0999 V2000
   -3.9472    0.2589    0.0501 C   0  0  0  0  0  0  0  0  0  0  0  0
   -2.7141   -0.6051    0.0025 C   0  0  0  0  0  0  0  0  0  0  0  0
   -4.8868   -0.3579    0.0988 H   0  0  0  0  0  0  0  0  0  0  0  0
   -4.0222    0.8291   -0.8402 H   0  0  0  0  0  0  0  0  0  0  0  0
   -3.9009    0.9172    0.9128 H   0  0  0  0  0  0  0  0  0  0  0  0
   -1.3970    0.2062   -0.0163 C   0  0  0  0  0  0  0  0  0  0  0  0
   -2.7677   -1.2932   -0.8627 H   0  0  0  0  0  0  0  0  0  0  0  0
   -2.7528   -1.1880    0.8605 H   0  0  0  0  0  0  0  0  0  0  0  0
   -0.1438   -0.7132    0.0616 C   0  0  0  0  0  0  0  0  0  0  0  0
   -1.4165    0.8223    0.7771 H   0  0  0  0  0  0  0  0  0  0  0  0
   -1.4125    0.8684   -0.9572 H   0  0  0  0  0  0  0  0  0  0  0  0
   -0.1317   -1.3492    0.9825 H   0  0  0  0  0  0  0  0  0  0  0  0
    0.7874   -0.1017    0.0958 H   0  0  0  0  0  0  0  0  0  0  0  0
   -0.0938   -1.3826   -0.7930 H   0  0  0  0  0  0  0  0  0  0  0  0
  1  3  1  0  0  0  0
  1  5  1  0  0  0  0
  2  1  1  0  0  0  0
  2  8  1  0  0  0  0
  4  1  1  0  0  0  0
  6  2  1  0  0  0  0
  6  9  1  0  0  0  0
  6 10  1  0  0  0  0
  7  2  1  0  0  0  0
  9 13  1  0  0  0  0
  9 12  1  0  0  0  0
 11  6  1  0  0  0  0
 14  9  1  0  0  0  0
M  END
$$$$
