butane_opt
 OpenBabel08242015413D

 14 13  0  0  0  0  0  0  0  0999 V2000
   -3.9494    0.2587    0.0184 C   0  0  0  0  0  0  0  0  0  0  0  0
   -2.7079   -0.6160    0.0306 C   0  0  0  0  0  0  0  0  0  0  0  0
   -4.8725   -0.3489   -0.0273 H   0  0  0  0  0  0  0  0  0  0  0  0
   -3.9672    0.7697   -0.7953 H   0  0  0  0  0  0  0  0  0  0  0  0
   -3.9953    1.0459    0.9638 H   0  0  0  0  0  0  0  0  0  0  0  0
   -1.4014    0.2049    0.0053 C   0  0  0  0  0  0  0  0  0  0  0  0
   -2.7129   -1.2624   -0.7888 H   0  0  0  0  0  0  0  0  0  0  0  0
   -2.7398   -1.2713    0.9291 H   0  0  0  0  0  0  0  0  0  0  0  0
   -0.1541   -0.7063    0.0360 C   0  0  0  0  0  0  0  0  0  0  0  0
   -1.3760    0.8767    0.8704 H   0  0  0  0  0  0  0  0  0  0  0  0
   -1.3312    0.8706   -0.9221 H   0  0  0  0  0  0  0  0  0  0  0  0
   -0.1172   -1.4066    0.9617 H   0  0  0  0  0  0  0  0  0  0  0  0
    0.7586   -0.1218   -0.0452 H   0  0  0  0  0  0  0  0  0  0  0  0
   -0.1103   -1.3228   -0.7732 H   0  0  0  0  0  0  0  0  0  0  0  0
  1  2  1  0  0  0  0
  1  5  1  0  0  0  0
  2  8  1  0  0  0  0
  3  1  1  0  0  0  0
  4  1  1  0  0  0  0
  6  2  1  0  0  0  0
  6  9  1  0  0  0  0
  6 10  1  0  0  0  0
  7  2  1  0  0  0  0
  9 12  1  0  0  0  0
 11  6  1  0  0  0  0
 13  9  1  0  0  0  0
 14  9  1  0  0  0  0
M  END
$$$$
