14
butane_opt
C  -3.939705   0.270697   0.006553
C  -2.690609  -0.624283   0.051575
H  -4.852504  -0.327436   0.088596
H  -4.020719   0.939685  -0.929163
H  -3.978415   0.884516   0.841102
C  -1.403093   0.182451   0.008581
H  -2.682832  -1.268843  -0.783706
H  -2.666893  -1.302274   0.991831
C  -0.176335  -0.682591   0.026952
H  -1.358605   0.851361   0.866258
H  -1.399801   0.766921  -0.839244
H  -0.155258  -1.209891   0.836355
H   0.740193  -0.100401   0.146112
H  -0.127218  -1.458940  -0.915860
