butane_opt
 OpenBabel08242015413D

 14 13  0  0  0  0  0  0  0  0999 V2000
   -3.9310    0.2460    0.0506 C   0  0  0  0  0  0  0  0  0  0  0  0
   -2.6931   -0.5931    0.0194 C   0  0  0  0  0  0  0  0  0  0  0  0
   -4.8641   -0.3449    0.0784 H   0  0  0  0  0  0  0  0  0  0  0  0
   -3.9372    0.8605   -0.8517 H   0  0  0  0  0  0  0  0  0  0  0  0
   -3.9261    0.9460    0.9384 H   0  0  0  0  0  0  0  0  0  0  0  0
   -1.4191    0.1951   -0.0421 C   0  0  0  0  0  0  0  0  0  0  0  0
   -2.7918   -1.2859   -0.8436 H   0  0  0  0  0  0  0  0  0  0  0  0
   -2.6952   -1.2269    0.8893 H   0  0  0  0  0  0  0  0  0  0  0  0
   -0.1617   -0.7052    0.0631 C   0  0  0  0  0  0  0  0  0  0  0  0
   -1.4644    0.8593    0.7846 H   0  0  0  0  0  0  0  0  0  0  0  0
   -1.3814    0.8043   -0.9376 H   0  0  0  0  0  0  0  0  0  0  0  0
   -0.2031   -1.2708    0.9381 H   0  0  0  0  0  0  0  0  0  0  0  0
    0.7520   -0.1035    0.1859 H   0  0  0  0  0  0  0  0  0  0  0  0
   -0.0519   -1.4243   -0.8365 H   0  0  0  0  0  0  0  0  0  0  0  0
  1  3  1  0  0  0  0
  1  5  1  0  0  0  0
  2  1  1  0  0  0  0
  2  8  1  0  0  0  0
  4  1  1  0  0  0  0
  6  2  1  0  0  0  0
  6  9  1  0  0  0  0
  6 10  1  0  0  0  0
  7  2  1  0  0  0  0
  9 13  1  0  0  0  0
  9 12  1  0  0  0  0
 11  6  1  0  0  0  0
 14  9  1  0  0  0  0
M  END
$$$$
