butane_opt
 OpenBabel08242015413D

 14 13  0  0  0  0  0  0  0  0999 V2000
   -3.9515    0.2697    0.0137 C   0  0  0  0  0  0  0  0  0  0  0  0
   -2.6829   -0.6227    0.0544 C   0  0  0  0  0  0  0  0  0  0  0  0
   -4.8438   -0.3117    0.0165 H   0  0  0  0  0  0  0  0  0  0  0  0
   -3.9899    0.9224   -0.9225 H   0  0  0  0  0  0  0  0  0  0  0  0
   -3.9723    0.9145    0.8774 H   0  0  0  0  0  0  0  0  0  0  0  0
   -1.3970    0.1727    0.0034 C   0  0  0  0  0  0  0  0  0  0  0  0
   -2.7240   -1.2657   -0.7971 H   0  0  0  0  0  0  0  0  0  0  0  0
   -2.6598   -1.3125    0.9958 H   0  0  0  0  0  0  0  0  0  0  0  0
   -0.1773   -0.6790    0.0175 C   0  0  0  0  0  0  0  0  0  0  0  0
   -1.3743    0.8673    0.8789 H   0  0  0  0  0  0  0  0  0  0  0  0
   -1.4073    0.7946   -0.8692 H   0  0  0  0  0  0  0  0  0  0  0  0
   -0.2277   -1.2189    0.8872 H   0  0  0  0  0  0  0  0  0  0  0  0
    0.7411   -0.0875    0.1661 H   0  0  0  0  0  0  0  0  0  0  0  0
   -0.0633   -1.4609   -0.8817 H   0  0  0  0  0  0  0  0  0  0  0  0
  1  3  1  0  0  0  0
  1  2  1  0  0  0  0
  1  5  1  0  0  0  0
  2  8  1  0  0  0  0
  4  1  1  0  0  0  0
  6  9  1  0  0  0  0
  6  2  1  0  0  0  0
  6 10  1  0  0  0  0
  7  2  1  0  0  0  0
  9 13  1  0  0  0  0
  9 12  1  0  0  0  0
 11  6  1  0  0  0  0
 14  9  1  0  0  0  0
M  END
$$$$
