14
butane_opt
C  -3.951138   0.250355   0.031858
C  -2.700925  -0.609623   0.036706
H  -4.846142  -0.341370   0.017581
H  -3.961506   0.819657  -0.824991
H  -3.977098   0.947496   0.893284
C  -1.407411   0.205790  -0.012971
H  -2.775017  -1.295955  -0.830563
H  -2.706686  -1.187374   0.902543
C  -0.143624  -0.700292   0.044500
H  -1.381965   0.815592   0.811738
H  -1.420547   0.903132  -0.933587
H  -0.193784  -1.284379   0.928328
H   0.716006  -0.178192   0.098620
H  -0.031712  -1.437190  -0.828168
