butane_opt
 OpenBabel08242015413D

 14 13  0  0  0  0  0  0  0  0999 V2000
   -3.9373    0.2638    0.0122 C   0  0  0  0  0  0  0  0  0  0  0  0
   -2.6903   -0.6230    0.0271 C   0  0  0  0  0  0  0  0  0  0  0  0
   -4.8290   -0.3265    0.0662 H   0  0  0  0  0  0  0  0  0  0  0  0
   -3.9894    0.8692   -0.8627 H   0  0  0  0  0  0  0  0  0  0  0  0
   -3.9704    1.0129    0.9176 H   0  0  0  0  0  0  0  0  0  0  0  0
   -1.4058    0.1780    0.0220 C   0  0  0  0  0  0  0  0  0  0  0  0
   -2.6404   -1.2962   -0.8200 H   0  0  0  0  0  0  0  0  0  0  0  0
   -2.6941   -1.2528    0.9319 H   0  0  0  0  0  0  0  0  0  0  0  0
   -0.1764   -0.6850    0.0262 C   0  0  0  0  0  0  0  0  0  0  0  0
   -1.3979    0.8529    0.8918 H   0  0  0  0  0  0  0  0  0  0  0  0
   -1.3687    0.8078   -0.8703 H   0  0  0  0  0  0  0  0  0  0  0  0
   -0.1397   -1.3844    1.0074 H   0  0  0  0  0  0  0  0  0  0  0  0
    0.7214   -0.0868   -0.0721 H   0  0  0  0  0  0  0  0  0  0  0  0
   -0.1926   -1.2732   -0.7862 H   0  0  0  0  0  0  0  0  0  0  0  0
  1  2  1  0  0  0  0
  1  3  1  0  0  0  0
  1  5  1  0  0  0  0
  2  8  1  0  0  0  0
  4  1  1  0  0  0  0
  6  9  1  0  0  0  0
  6  2  1  0  0  0  0
  6 10  1  0  0  0  0
  7  2  1  0  0  0  0
  9 12  1  0  0  0  0
 11  6  1  0  0  0  0
 13  9  1  0  0  0  0
 14  9  1  0  0  0  0
M  END
$$$$
