butane_opt
 OpenBabel08242015413D

 14 13  0  0  0  0  0  0  0  0999 V2000
   -3.9345    0.2730    0.0033 C   0  0  0  0  0  0  0  0  0  0  0  0
   -2.6930   -0.6283    0.0661 C   0  0  0  0  0  0  0  0  0  0  0  0
   -4.8156   -0.2890   -0.0543 H   0  0  0  0  0  0  0  0  0  0  0  0
   -3.8934    0.8603   -0.9019 H   0  0  0  0  0  0  0  0  0  0  0  0
   -4.0525    0.9850    0.8632 H   0  0  0  0  0  0  0  0  0  0  0  0
   -1.3953    0.1757    0.0233 C   0  0  0  0  0  0  0  0  0  0  0  0
   -2.7291   -1.2712   -0.7789 H   0  0  0  0  0  0  0  0  0  0  0  0
   -2.7114   -1.2982    0.9927 H   0  0  0  0  0  0  0  0  0  0  0  0
   -0.1799   -0.6877    0.0093 C   0  0  0  0  0  0  0  0  0  0  0  0
   -1.4073    0.8962    0.8990 H   0  0  0  0  0  0  0  0  0  0  0  0
   -1.4077    0.7681   -0.8543 H   0  0  0  0  0  0  0  0  0  0  0  0
   -0.1653   -1.2891    0.8777 H   0  0  0  0  0  0  0  0  0  0  0  0
    0.7607   -0.0702   -0.0013 H   0  0  0  0  0  0  0  0  0  0  0  0
   -0.1740   -1.3480   -0.8239 H   0  0  0  0  0  0  0  0  0  0  0  0
  1  2  1  0  0  0  0
  1  5  1  0  0  0  0
  2  8  1  0  0  0  0
  3  1  1  0  0  0  0
  4  1  1  0  0  0  0
  6  2  1  0  0  0  0
  6 10  1  0  0  0  0
  7  2  1  0  0  0  0
  9  6  1  0  0  0  0
  9 12  1  0  0  0  0
 11  6  1  0  0  0  0
 13  9  1  0  0  0  0
 14  9  1  0  0  0  0
M  END
$$$$
