14
butane_opt
C  -3.949117   0.262249   0.027851
C  -2.699466  -0.617592   0.043206
H  -4.865313  -0.324863  -0.088723
H  -3.948233   0.727197  -0.778887
H  -4.019330   1.068736   0.987162
C  -1.403410   0.190553  -0.019891
H  -2.732617  -1.340375  -0.825827
H  -2.712846  -1.236413   0.914001
C  -0.149938  -0.693779   0.042330
H  -1.402225   0.837946   0.826046
H  -1.391461   0.887199  -0.938463
H  -0.123610  -1.354982   0.987304
H   0.709077  -0.138424   0.037892
H  -0.109893  -1.303393  -0.781018
