butane_opt
 OpenBabel08242015413D

 14 13  0  0  0  0  0  0  0  0999 V2000
   -3.9502    0.2807    0.0396 C   0  0  0  0  0  0  0  0  0  0  0  0
   -2.7056   -0.6331    0.0129 C   0  0  0  0  0  0  0  0  0  0  0  0
   -4.8912   -0.3255    0.1010 H   0  0  0  0  0  0  0  0  0  0  0  0
   -4.0611    0.8804   -0.8496 H   0  0  0  0  0  0  0  0  0  0  0  0
   -3.9133    0.9749    0.9399 H   0  0  0  0  0  0  0  0  0  0  0  0
   -1.3953    0.1756   -0.0200 C   0  0  0  0  0  0  0  0  0  0  0  0
   -2.7088   -1.3177   -0.8550 H   0  0  0  0  0  0  0  0  0  0  0  0
   -2.6605   -1.2278    0.8843 H   0  0  0  0  0  0  0  0  0  0  0  0
   -0.1588   -0.6877    0.0608 C   0  0  0  0  0  0  0  0  0  0  0  0
   -1.3791    0.7834    0.7909 H   0  0  0  0  0  0  0  0  0  0  0  0
   -1.3384    0.8348   -0.9262 H   0  0  0  0  0  0  0  0  0  0  0  0
   -0.1910   -1.2854    0.9420 H   0  0  0  0  0  0  0  0  0  0  0  0
    0.7664   -0.0607    0.1143 H   0  0  0  0  0  0  0  0  0  0  0  0
   -0.1243   -1.3557   -0.8203 H   0  0  0  0  0  0  0  0  0  0  0  0
  1  3  1  0  0  0  0
  1  5  1  0  0  0  0
  2  1  1  0  0  0  0
  2  8  1  0  0  0  0
  4  1  1  0  0  0  0
  6  2  1  0  0  0  0
  6  9  1  0  0  0  0
  6 10  1  0  0  0  0
  7  2  1  0  0  0  0
  9 13  1  0  0  0  0
  9 12  1  0  0  0  0
 11  6  1  0  0  0  0
 14  9  1  0  0  0  0
M  END
$$$$
