14
butane_opt
C  -3.944421   0.276798   0.001692
C  -2.703484  -0.633264   0.070407
H  -4.840406  -0.281447   0.009120
H  -4.004820   0.941338  -0.949958
H  -4.030566   0.875197   0.805899
C  -1.399975   0.182156   0.029131
H  -2.732182  -1.313624  -0.785345
H  -2.759158  -1.263674   0.988243
C  -0.151971  -0.685214   0.009049
H  -1.327752   0.830987   0.862502
H  -1.414647   0.793403  -0.858106
H  -0.152441  -1.198184   0.838491
H   0.743400  -0.099720   0.103220
H  -0.108568  -1.439060  -0.911655
