14
butane_opt
C  -3.936822   0.268290   0.032808
C  -2.698656  -0.624454   0.022723
H  -4.808878  -0.303180   0.007830
H  -3.978518   0.841708  -0.860732
H  -3.987816   1.013172   0.927414
C  -1.402136   0.176798  -0.004918
H  -2.707698  -1.313882  -0.827615
H  -2.728243  -1.200844   0.863851
C  -0.175987  -0.692015   0.043224
H  -1.366726   0.900966   0.882900
H  -1.376622   0.769236  -0.860732
H  -0.101198  -1.432164   1.029666
H   0.770125  -0.068140  -0.090204
H  -0.181081  -1.212874  -0.734710
