14
butane_opt
C  -3.929683   0.258641  -0.008877
C  -2.687877  -0.614151   0.045385
H  -4.860262  -0.334435   0.150779
H  -4.009075   0.984034  -0.949075
H  -3.908071   0.817139   0.781004
C  -1.415042   0.196943   0.044281
H  -2.705663  -1.250744  -0.778093
H  -2.749511  -1.297019   0.989163
C  -0.165180  -0.698413   0.011633
H  -1.374855   0.906060   0.957101
H  -1.443621   0.793964  -0.816476
H  -0.162325  -1.271688   0.876429
H   0.742398  -0.099124   0.000039
H  -0.174697  -1.437543  -0.899770
