butane_opt
 OpenBabel08242015413D

 14 13  0  0  0  0  0  0  0  0999 V2000
   -3.9458    0.2696   -0.0079 C   0  0  0  0  0  0  0  0  0  0  0  0
   -2.6950   -0.6320    0.0757 C   0  0  0  0  0  0  0  0  0  0  0  0
   -4.8546   -0.2961    0.0653 H   0  0  0  0  0  0  0  0  0  0  0  0
   -4.0233    0.9706   -0.9629 H   0  0  0  0  0  0  0  0  0  0  0  0
   -3.9649    0.8837    0.7904 H   0  0  0  0  0  0  0  0  0  0  0  0
   -1.4089    0.1752    0.0251 C   0  0  0  0  0  0  0  0  0  0  0  0
   -2.7316   -1.2590   -0.7419 H   0  0  0  0  0  0  0  0  0  0  0  0
   -2.7008   -1.2750    0.9671 H   0  0  0  0  0  0  0  0  0  0  0  0
   -0.1541   -0.6792    0.0047 C   0  0  0  0  0  0  0  0  0  0  0  0
   -1.3402    0.8804    0.9069 H   0  0  0  0  0  0  0  0  0  0  0  0
   -1.4092    0.7958   -0.8323 H   0  0  0  0  0  0  0  0  0  0  0  0
   -0.1875   -1.1924    0.8275 H   0  0  0  0  0  0  0  0  0  0  0  0
    0.7348   -0.1012    0.1555 H   0  0  0  0  0  0  0  0  0  0  0  0
   -0.1015   -1.4879   -0.9307 H   0  0  0  0  0  0  0  0  0  0  0  0
  1  3  1  0  0  0  0
  1  2  1  0  0  0  0
  1  5  1  0  0  0  0
  2  8  1  0  0  0  0
  4  1  1  0  0  0  0
  6  2  1  0  0  0  0
  6 10  1  0  0  0  0
  7  2  1  0  0  0  0
  9  6  1  0  0  0  0
  9 13  1  0  0  0  0
  9 12  1  0  0  0  0
 11  6  1  0  0  0  0
 14  9  1  0  0  0  0
M  END
$$$$
