butane_opt
 OpenBabel08242015413D

 14 13  0  0  0  0  0  0  0  0999 V2000
   -3.9362    0.2782   -0.0136 C   0  0  0  0  0  0  0  0  0  0  0  0
   -2.6991   -0.6349    0.0593 C   0  0  0  0  0  0  0  0  0  0  0  0
   -4.8607   -0.3184    0.1538 H   0  0  0  0  0  0  0  0  0  0  0  0
   -4.0648    1.0503   -0.9963 H   0  0  0  0  0  0  0  0  0  0  0  0
   -3.9196    0.8267    0.7721 H   0  0  0  0  0  0  0  0  0  0  0  0
   -1.3966    0.1819    0.0525 C   0  0  0  0  0  0  0  0  0  0  0  0
   -2.6843   -1.3325   -0.8234 H   0  0  0  0  0  0  0  0  0  0  0  0
   -2.7476   -1.2771    0.9529 H   0  0  0  0  0  0  0  0  0  0  0  0
   -0.1699   -0.6860    0.0084 C   0  0  0  0  0  0  0  0  0  0  0  0
   -1.3330    0.8660    0.9388 H   0  0  0  0  0  0  0  0  0  0  0  0
   -1.4404    0.7895   -0.8260 H   0  0  0  0  0  0  0  0  0  0  0  0
   -0.1236   -1.2267    0.8795 H   0  0  0  0  0  0  0  0  0  0  0  0
    0.7681   -0.0888   -0.0143 H   0  0  0  0  0  0  0  0  0  0  0  0
   -0.1984   -1.4227   -0.8968 H   0  0  0  0  0  0  0  0  0  0  0  0
  1  2  1  0  0  0  0
  1  3  1  0  0  0  0
  1  5  1  0  0  0  0
  2  8  1  0  0  0  0
  4  1  1  0  0  0  0
  6  2  1  0  0  0  0
  6 10  1  0  0  0  0
  7  2  1  0  0  0  0
  9  6  1  0  0  0  0
  9 12  1  0  0  0  0
 11  6  1  0  0  0  0
 13  9  1  0  0  0  0
 14  9  1  0  0  0  0
M  END
$$$$
