butane_opt
 OpenBabel08242015413D

 14 13  0  0  0  0  0  0  0  0999 V2000
   -3.9488    0.2536    0.0425 C   0  0  0  0  0  0  0  0  0  0  0  0
   -2.6952   -0.5970    0.0053 C   0  0  0  0  0  0  0  0  0  0  0  0
   -4.8857   -0.3613    0.1169 H   0  0  0  0  0  0  0  0  0  0  0  0
   -3.9882    0.8738   -0.8736 H   0  0  0  0  0  0  0  0  0  0  0  0
   -3.8626    0.8936    0.8980 H   0  0  0  0  0  0  0  0  0  0  0  0
   -1.4123    0.1923   -0.0058 C   0  0  0  0  0  0  0  0  0  0  0  0
   -2.7482   -1.3158   -0.8779 H   0  0  0  0  0  0  0  0  0  0  0  0
   -2.7035   -1.2099    0.8689 H   0  0  0  0  0  0  0  0  0  0  0  0
   -0.1566   -0.7004    0.0594 C   0  0  0  0  0  0  0  0  0  0  0  0
   -1.4593    0.8716    0.8206 H   0  0  0  0  0  0  0  0  0  0  0  0
   -1.3456    0.8443   -0.9274 H   0  0  0  0  0  0  0  0  0  0  0  0
   -0.0765   -1.3795    0.9935 H   0  0  0  0  0  0  0  0  0  0  0  0
    0.7424   -0.1017    0.0092 H   0  0  0  0  0  0  0  0  0  0  0  0
   -0.1439   -1.3694   -0.8049 H   0  0  0  0  0  0  0  0  0  0  0  0
  1  3  1  0  0  0  0
  1  5  1  0  0  0  0
  2  1  1  0  0  0  0
  2  8  1  0  0  0  0
  4  1  1  0  0  0  0
  6  2  1  0  0  0  0
  6  9  1  0  0  0  0
  6 10  1  0  0  0  0
  7  2  1  0  0  0  0
  9 12  1  0  0  0  0
 11  6  1  0  0  0  0
 13  9  1  0  0  0  0
 14  9  1  0  0  0  0
M  END
$$$$
