butane_opt
 OpenBabel08242015413D

 14 13  0  0  0  0  0  0  0  0999 V2000
   -3.9289    0.2571   -0.0118 C   0  0  0  0  0  0  0  0  0  0  0  0
   -2.7032   -0.5964    0.0624 C   0  0  0  0  0  0  0  0  0  0  0  0
   -4.8945   -0.3907    0.0152 H   0  0  0  0  0  0  0  0  0  0  0  0
   -3.8894    0.8588   -0.9258 H   0  0  0  0  0  0  0  0  0  0  0  0
   -3.9929    0.8694    0.7923 H   0  0  0  0  0  0  0  0  0  0  0  0
   -1.4055    0.1955    0.0502 C   0  0  0  0  0  0  0  0  0  0  0  0
   -2.6791   -1.2321   -0.7797 H   0  0  0  0  0  0  0  0  0  0  0  0
   -2.7330   -1.2529    0.9903 H   0  0  0  0  0  0  0  0  0  0  0  0
   -0.1665   -0.7071   -0.0030 C   0  0  0  0  0  0  0  0  0  0  0  0
   -1.3611    0.9424    0.9730 H   0  0  0  0  0  0  0  0  0  0  0  0
   -1.4781    0.7790   -0.7798 H   0  0  0  0  0  0  0  0  0  0  0  0
   -0.0924   -1.3766    0.9279 H   0  0  0  0  0  0  0  0  0  0  0  0
    0.7467   -0.1363   -0.1092 H   0  0  0  0  0  0  0  0  0  0  0  0
   -0.1901   -1.3307   -0.8329 H   0  0  0  0  0  0  0  0  0  0  0  0
  1  3  1  0  0  0  0
  1  2  1  0  0  0  0
  1  5  1  0  0  0  0
  2  8  1  0  0  0  0
  4  1  1  0  0  0  0
  6  2  1  0  0  0  0
  6 10  1  0  0  0  0
  7  2  1  0  0  0  0
  9  6  1  0  0  0  0
  9 12  1  0  0  0  0
 11  6  1  0  0  0  0
 13  9  1  0  0  0  0
 14  9  1  0  0  0  0
M  END
$$$$
