butane_opt
 OpenBabel08242015413D

 14 13  0  0  0  0  0  0  0  0999 V2000
   -3.9585    0.2846   -0.0185 C   0  0  0  0  0  0  0  0  0  0  0  0
   -2.7028   -0.6350    0.0737 C   0  0  0  0  0  0  0  0  0  0  0  0
   -4.9012   -0.3098   -0.0230 H   0  0  0  0  0  0  0  0  0  0  0  0
   -3.9882    0.9249   -0.9394 H   0  0  0  0  0  0  0  0  0  0  0  0
   -4.0161    0.9119    0.8191 H   0  0  0  0  0  0  0  0  0  0  0  0
   -1.3817    0.1715    0.0566 C   0  0  0  0  0  0  0  0  0  0  0  0
   -2.6583   -1.3165   -0.8003 H   0  0  0  0  0  0  0  0  0  0  0  0
   -2.7652   -1.2823    0.9915 H   0  0  0  0  0  0  0  0  0  0  0  0
   -0.1569   -0.6834   -0.0061 C   0  0  0  0  0  0  0  0  0  0  0  0
   -1.3178    0.9401    0.9734 H   0  0  0  0  0  0  0  0  0  0  0  0
   -1.4183    0.7275   -0.7893 H   0  0  0  0  0  0  0  0  0  0  0  0
   -0.0865   -1.3624    0.9182 H   0  0  0  0  0  0  0  0  0  0  0  0
    0.7363   -0.1011   -0.1495 H   0  0  0  0  0  0  0  0  0  0  0  0
   -0.2077   -1.2559   -0.8233 H   0  0  0  0  0  0  0  0  0  0  0  0
  1  2  1  0  0  0  0
  1  5  1  0  0  0  0
  2  8  1  0  0  0  0
  3  1  1  0  0  0  0
  4  1  1  0  0  0  0
  6  2  1  0  0  0  0
  6 10  1  0  0  0  0
  7  2  1  0  0  0  0
  9  6  1  0  0  0  0
  9 12  1  0  0  0  0
 11  6  1  0  0  0  0
 13  9  1  0  0  0  0
 14  9  1  0  0  0  0
M  END
$$$$
