14
butane_opt
C  -3.957732   0.260378   0.019065
C  -2.699528  -0.605803   0.027783
H  -4.881699  -0.341962   0.141291
H  -3.982792   0.937689  -0.926205
H  -3.898631   0.849633   0.850465
C  -1.410216   0.187412   0.024695
H  -2.690057  -1.333462  -0.849117
H  -2.767805  -1.215300   0.905631
C  -0.148850  -0.691236   0.029956
H  -1.381058   0.850637   0.870943
H  -1.388057   0.829579  -0.910097
H  -0.079764  -1.335926   0.951630
H   0.755305  -0.115459   0.019364
H  -0.122064  -1.398645  -0.831145
