butane_opt
 OpenBabel08242015413D

 14 13  0  0  0  0  0  0  0  0999 V2000
   -3.9397    0.2581    0.0433 C   0  0  0  0  0  0  0  0  0  0  0  0
   -2.6971   -0.5969   -0.0037 C   0  0  0  0  0  0  0  0  0  0  0  0
   -4.8252   -0.3392    0.0454 H   0  0  0  0  0  0  0  0  0  0  0  0
   -3.9650    0.8333   -0.7994 H   0  0  0  0  0  0  0  0  0  0  0  0
   -3.9225    0.9275    0.9128 H   0  0  0  0  0  0  0  0  0  0  0  0
   -1.4052    0.1821   -0.0056 C   0  0  0  0  0  0  0  0  0  0  0  0
   -2.7422   -1.2688   -0.8432 H   0  0  0  0  0  0  0  0  0  0  0  0
   -2.7485   -1.2152    0.8818 H   0  0  0  0  0  0  0  0  0  0  0  0
   -0.1628   -0.7014    0.0575 C   0  0  0  0  0  0  0  0  0  0  0  0
   -1.4485    0.8599    0.8587 H   0  0  0  0  0  0  0  0  0  0  0  0
   -1.3710    0.8037   -0.8910 H   0  0  0  0  0  0  0  0  0  0  0  0
   -0.1018   -1.4176    1.0163 H   0  0  0  0  0  0  0  0  0  0  0  0
    0.7587   -0.0920   -0.0817 H   0  0  0  0  0  0  0  0  0  0  0  0
   -0.2039   -1.2618   -0.7463 H   0  0  0  0  0  0  0  0  0  0  0  0
  1  3  1  0  0  0  0
  1  5  1  0  0  0  0
  2  1  1  0  0  0  0
  2  8  1  0  0  0  0
  4  1  1  0  0  0  0
  6  2  1  0  0  0  0
  6  9  1  0  0  0  0
  6 10  1  0  0  0  0
  7  2  1  0  0  0  0
  9 12  1  0  0  0  0
 11  6  1  0  0  0  0
 13  9  1  0  0  0  0
 14  9  1  0  0  0  0
M  END
$$$$
