butane_opt
 OpenBabel08242015413D

 14 13  0  0  0  0  0  0  0  0999 V2000
   -3.9477    0.2748   -0.0121 C   0  0  0  0  0  0  0  0  0  0  0  0
   -2.7061   -0.6349    0.0635 C   0  0  0  0  0  0  0  0  0  0  0  0
   -4.8249   -0.2934   -0.0015 H   0  0  0  0  0  0  0  0  0  0  0  0
   -3.9885    0.9408   -0.9218 H   0  0  0  0  0  0  0  0  0  0  0  0
   -3.9850    0.9220    0.8277 H   0  0  0  0  0  0  0  0  0  0  0  0
   -1.3907    0.1827    0.0455 C   0  0  0  0  0  0  0  0  0  0  0  0
   -2.7115   -1.2991   -0.8068 H   0  0  0  0  0  0  0  0  0  0  0  0
   -2.7552   -1.2871    0.9732 H   0  0  0  0  0  0  0  0  0  0  0  0
   -0.1610   -0.6889    0.0014 C   0  0  0  0  0  0  0  0  0  0  0  0
   -1.3313    0.9395    0.9661 H   0  0  0  0  0  0  0  0  0  0  0  0
   -1.4626    0.7564   -0.7919 H   0  0  0  0  0  0  0  0  0  0  0  0
   -0.0863   -1.3769    0.9626 H   0  0  0  0  0  0  0  0  0  0  0  0
    0.7641   -0.0537   -0.1151 H   0  0  0  0  0  0  0  0  0  0  0  0
   -0.1874   -1.3167   -0.8306 H   0  0  0  0  0  0  0  0  0  0  0  0
  1  3  1  0  0  0  0
  1  2  1  0  0  0  0
  1  5  1  0  0  0  0
  2  8  1  0  0  0  0
  4  1  1  0  0  0  0
  6  2  1  0  0  0  0
  6 10  1  0  0  0  0
  7  2  1  0  0  0  0
  9  6  1  0  0  0  0
  9 12  1  0  0  0  0
 11  6  1  0  0  0  0
 13  9  1  0  0  0  0
 14  9  1  0  0  0  0
M  END
$$$$
