14
butane_opt
C  -3.948987   0.268962   0.037331
C  -2.705901  -0.626008   0.032565
H  -4.817631  -0.286234  -0.112388
H  -3.950226   0.814807  -0.799331
H  -4.089981   1.059195   0.961544
C  -1.390510   0.184149  -0.014057
H  -2.746226  -1.332586  -0.837617
H  -2.691670  -1.238558   0.910314
C  -0.163143  -0.689460   0.048780
H  -1.359210   0.775100   0.806964
H  -1.385140   0.829569  -0.914754
H  -0.099751  -1.354145   0.972994
H   0.787849  -0.068862  -0.005379
H  -0.172370  -1.311054  -0.780038
