butane_opt
 OpenBabel08242015413D

 14 13  0  0  0  0  0  0  0  0999 V2000
   -3.9246    0.2558   -0.0114 C   0  0  0  0  0  0  0  0  0  0  0  0
   -2.6946   -0.6051    0.0696 C   0  0  0  0  0  0  0  0  0  0  0  0
   -4.8783   -0.3497   -0.1119 H   0  0  0  0  0  0  0  0  0  0  0  0
   -3.9135    0.7692   -0.8609 H   0  0  0  0  0  0  0  0  0  0  0  0
   -4.0051    1.0405    0.9220 H   0  0  0  0  0  0  0  0  0  0  0  0
   -1.4107    0.1967    0.0337 C   0  0  0  0  0  0  0  0  0  0  0  0
   -2.7377   -1.2321   -0.7406 H   0  0  0  0  0  0  0  0  0  0  0  0
   -2.7535   -1.3225    1.0364 H   0  0  0  0  0  0  0  0  0  0  0  0
   -0.1630   -0.7045    0.0083 C   0  0  0  0  0  0  0  0  0  0  0  0
   -1.3909    0.8644    0.8757 H   0  0  0  0  0  0  0  0  0  0  0  0
   -1.4415    0.8433   -0.8568 H   0  0  0  0  0  0  0  0  0  0  0  0
   -0.1540   -1.3224    0.8913 H   0  0  0  0  0  0  0  0  0  0  0  0
    0.7460   -0.1044   -0.0380 H   0  0  0  0  0  0  0  0  0  0  0  0
   -0.1682   -1.3817   -0.8760 H   0  0  0  0  0  0  0  0  0  0  0  0
  1  2  1  0  0  0  0
  1  5  1  0  0  0  0
  2  8  1  0  0  0  0
  3  1  1  0  0  0  0
  4  1  1  0  0  0  0
  6  2  1  0  0  0  0
  6 10  1  0  0  0  0
  7  2  1  0  0  0  0
  9  6  1  0  0  0  0
  9 12  1  0  0  0  0
 11  6  1  0  0  0  0
 13  9  1  0  0  0  0
 14  9  1  0  0  0  0
M  END
$$$$
