14
butane_opt
C  -3.946571   0.255336   0.029639
C  -2.716279  -0.599650   0.021390
H  -4.891208  -0.358958   0.069166
H  -3.943731   0.868792  -0.877246
H  -3.950493   0.933089   0.873536
C  -1.402530   0.198745   0.009544
H  -2.761021  -1.336206  -0.870123
H  -2.685409  -1.174489   0.873940
C  -0.149369  -0.703948   0.043184
H  -1.414671   0.846156   0.859351
H  -1.369978   0.781848  -0.872134
H  -0.042640  -1.435188   0.986562
H   0.751850  -0.116809  -0.084932
H  -0.140069  -1.280286  -0.753214
