butane_opt
 OpenBabel08242015413D

 14 13  0  0  0  0  0  0  0  0999 V2000
   -3.9347    0.2586    0.0363 C   0  0  0  0  0  0  0  0  0  0  0  0
   -2.6980   -0.6044    0.0220 C   0  0  0  0  0  0  0  0  0  0  0  0
   -4.8256   -0.3034   -0.1283 H   0  0  0  0  0  0  0  0  0  0  0  0
   -3.9289    0.7404   -0.7760 H   0  0  0  0  0  0  0  0  0  0  0  0
   -3.9684    1.0247    0.9863 H   0  0  0  0  0  0  0  0  0  0  0  0
   -1.4036    0.1835   -0.0138 C   0  0  0  0  0  0  0  0  0  0  0  0
   -2.7434   -1.2439   -0.7918 H   0  0  0  0  0  0  0  0  0  0  0  0
   -2.7042   -1.2683    0.9464 H   0  0  0  0  0  0  0  0  0  0  0  0
   -0.1687   -0.7006    0.0507 C   0  0  0  0  0  0  0  0  0  0  0  0
   -1.4225    0.8265    0.8033 H   0  0  0  0  0  0  0  0  0  0  0  0
   -1.4179    0.8488   -0.8988 H   0  0  0  0  0  0  0  0  0  0  0  0
   -0.1471   -1.3474    0.9651 H   0  0  0  0  0  0  0  0  0  0  0  0
    0.7531   -0.0860   -0.0142 H   0  0  0  0  0  0  0  0  0  0  0  0
   -0.1600   -1.3083   -0.7844 H   0  0  0  0  0  0  0  0  0  0  0  0
  1  5  1  0  0  0  0
  2  1  1  0  0  0  0
  2  8  1  0  0  0  0
  3  1  1  0  0  0  0
  4  1  1  0  0  0  0
  6  2  1  0  0  0  0
  6  9  1  0  0  0  0
  6 10  1  0  0  0  0
  7  2  1  0  0  0  0
  9 12  1  0  0  0  0
 11  6  1  0  0  0  0
 13  9  1  0  0  0  0
 14  9  1  0  0  0  0
M  END
$$$$
