14
butane_opt
C  -3.954484   0.266834   0.037749
C  -2.696754  -0.623438   0.007294
H  -4.860528  -0.326240   0.174111
H  -4.075198   0.948125  -0.883810
H  -3.948862   0.851012   0.852920
C  -1.400160   0.189480  -0.003077
H  -2.711256  -1.324749  -0.859849
H  -2.698530  -1.199248   0.848495
C  -0.157588  -0.692343   0.057798
H  -1.390042   0.856073   0.850838
H  -1.317871   0.819841  -0.899305
H  -0.129945  -1.279952   0.955421
H   0.745343  -0.142140  -0.008885
H  -0.122037  -1.361451  -0.799299
