14
butane_opt
C  -3.953995   0.275479  -0.001944
C  -2.679214  -0.615905   0.070584
H  -4.869639  -0.308947   0.044445
H  -3.937622   0.901174  -0.943085
H  -3.953209   0.855658   0.798924
C  -1.402624   0.169829   0.020712
H  -2.671867  -1.273605  -0.734859
H  -2.739943  -1.318015   1.007626
C  -0.174124  -0.683903   0.002382
H  -1.334795   0.901610   0.917528
H  -1.438191   0.774848  -0.850066
H  -0.218806  -1.206204   0.837033
H   0.765847  -0.078522   0.175479
H  -0.115713  -1.460151  -0.923257
