butane_opt
 OpenBabel08242015413D

 14 13  0  0  0  0  0  0  0  0999 V2000
   -3.9314    0.2424    0.0324 C   0  0  0  0  0  0  0  0  0  0  0  0
   -2.6987   -0.6071    0.0147 C   0  0  0  0  0  0  0  0  0  0  0  0
   -4.8481   -0.3476    0.1376 H   0  0  0  0  0  0  0  0  0  0  0  0
   -4.0002    0.9477   -0.8934 H   0  0  0  0  0  0  0  0  0  0  0  0
   -3.9070    0.9139    0.8768 H   0  0  0  0  0  0  0  0  0  0  0  0
   -1.4161    0.2086   -0.0059 C   0  0  0  0  0  0  0  0  0  0  0  0
   -2.7239   -1.3011   -0.8422 H   0  0  0  0  0  0  0  0  0  0  0  0
   -2.6891   -1.1958    0.8874 H   0  0  0  0  0  0  0  0  0  0  0  0
   -0.1648   -0.7110    0.0485 C   0  0  0  0  0  0  0  0  0  0  0  0
   -1.4401    0.9312    0.8826 H   0  0  0  0  0  0  0  0  0  0  0  0
   -1.3914    0.7674   -0.8625 H   0  0  0  0  0  0  0  0  0  0  0  0
   -0.1379   -1.3660    0.9616 H   0  0  0  0  0  0  0  0  0  0  0  0
    0.7554   -0.1018   -0.0146 H   0  0  0  0  0  0  0  0  0  0  0  0
   -0.1004   -1.3145   -0.7739 H   0  0  0  0  0  0  0  0  0  0  0  0
  1  3  1  0  0  0  0
  1  5  1  0  0  0  0
  2  1  1  0  0  0  0
  2  8  1  0  0  0  0
  4  1  1  0  0  0  0
  6  2  1  0  0  0  0
  6  9  1  0  0  0  0
  6 10  1  0  0  0  0
  7  2  1  0  0  0  0
  9 12  1  0  0  0  0
 11  6  1  0  0  0  0
 13  9  1  0  0  0  0
 14  9  1  0  0  0  0
M  END
$$$$
