butane_opt
 OpenBabel08242015413D

 14 13  0  0  0  0  0  0  0  0999 V2000
   -3.9429    0.2704   -0.0109 C   0  0  0  0  0  0  0  0  0  0  0  0
   -2.6893   -0.6286    0.0912 C   0  0  0  0  0  0  0  0  0  0  0  0
   -4.8209   -0.2685   -0.1463 H   0  0  0  0  0  0  0  0  0  0  0  0
   -3.8669    0.8323   -0.8808 H   0  0  0  0  0  0  0  0  0  0  0  0
   -4.0523    1.0118    0.8735 H   0  0  0  0  0  0  0  0  0  0  0  0
   -1.3975    0.1710    0.0330 C   0  0  0  0  0  0  0  0  0  0  0  0
   -2.6589   -1.2934   -0.7321 H   0  0  0  0  0  0  0  0  0  0  0  0
   -2.7506   -1.2700    0.9810 H   0  0  0  0  0  0  0  0  0  0  0  0
   -0.1759   -0.6858   -0.0031 C   0  0  0  0  0  0  0  0  0  0  0  0
   -1.3694    0.8639    0.9012 H   0  0  0  0  0  0  0  0  0  0  0  0
   -1.4587    0.8184   -0.8529 H   0  0  0  0  0  0  0  0  0  0  0  0
   -0.1738   -1.2814    0.8838 H   0  0  0  0  0  0  0  0  0  0  0  0
    0.7631   -0.0738   -0.0098 H   0  0  0  0  0  0  0  0  0  0  0  0
   -0.1776   -1.3322   -0.8916 H   0  0  0  0  0  0  0  0  0  0  0  0
  1  2  1  0  0  0  0
  1  5  1  0  0  0  0
  2  8  1  0  0  0  0
  3  1  1  0  0  0  0
  4  1  1  0  0  0  0
  6  2  1  0  0  0  0
  6 10  1  0  0  0  0
  7  2  1  0  0  0  0
  9  6  1  0  0  0  0
  9 12  1  0  0  0  0
 11  6  1  0  0  0  0
 13  9  1  0  0  0  0
 14  9  1  0  0  0  0
M  END
$$$$
