14
butane_opt
C  -3.948237   0.252397  -0.003084
C  -2.703837  -0.610547   0.065412
H  -4.863223  -0.355035   0.070357
H  -3.943588   0.927567  -0.930890
H  -4.000410   0.896078   0.828152
C  -1.404740   0.196826   0.021406
H  -2.726540  -1.247274  -0.744786
H  -2.739933  -1.234697   0.968616
C  -0.149263  -0.707044   0.022153
H  -1.404603   0.867128   0.857991
H  -1.447716   0.864296  -0.869037
H  -0.089087  -1.181963   0.813698
H   0.775289  -0.083411   0.106241
H  -0.109658  -1.511633  -0.944677
