butane_opt
 OpenBabel08242015413D

 14 13  0  0  0  0  0  0  0  0999 V2000
   -3.9483    0.2763   -0.0003 C   0  0  0  0  0  0  0  0  0  0  0  0
   -2.6955   -0.6187    0.0542 C   0  0  0  0  0  0  0  0  0  0  0  0
   -4.8574   -0.3249    0.1402 H   0  0  0  0  0  0  0  0  0  0  0  0
   -3.9740    1.0019   -0.9920 H   0  0  0  0  0  0  0  0  0  0  0  0
   -3.8980    0.8289    0.7740 H   0  0  0  0  0  0  0  0  0  0  0  0
   -1.4019    0.1729    0.0351 C   0  0  0  0  0  0  0  0  0  0  0  0
   -2.6958   -1.3009   -0.7976 H   0  0  0  0  0  0  0  0  0  0  0  0
   -2.7033   -1.2934    0.9772 H   0  0  0  0  0  0  0  0  0  0  0  0
   -0.1730   -0.6894    0.0015 C   0  0  0  0  0  0  0  0  0  0  0  0
   -1.3517    0.9086    0.9245 H   0  0  0  0  0  0  0  0  0  0  0  0
   -1.3692    0.7481   -0.7888 H   0  0  0  0  0  0  0  0  0  0  0  0
   -0.1934   -1.2681    0.8866 H   0  0  0  0  0  0  0  0  0  0  0  0
    0.7789   -0.0654    0.0959 H   0  0  0  0  0  0  0  0  0  0  0  0
   -0.1406   -1.3905   -0.8833 H   0  0  0  0  0  0  0  0  0  0  0  0
  1  2  1  0  0  0  0
  1  3  1  0  0  0  0
  1  5  1  0  0  0  0
  2  8  1  0  0  0  0
  4  1  1  0  0  0  0
  6  2  1  0  0  0  0
  6 10  1  0  0  0  0
  7  2  1  0  0  0  0
  9  6  1  0  0  0  0
  9 13  1  0  0  0  0
  9 12  1  0  0  0  0
 11  6  1  0  0  0  0
 14  9  1  0  0  0  0
M  END
$$$$
