14
butane_opt
C  -3.941542   0.276122  -0.020056
C  -2.698322  -0.634589   0.069137
H  -4.842379  -0.292925   0.047237
H  -3.997932   0.959287  -0.963905
H  -3.947931   0.886175   0.825643
C  -1.405003   0.176697   0.059223
H  -2.703293  -1.310360  -0.778365
H  -2.734954  -1.244687   0.948087
C  -0.169966  -0.688868  -0.000036
H  -1.338590   0.873231   0.931403
H  -1.390055   0.828926  -0.823335
H  -0.076838  -1.308732   0.888288
H   0.774298  -0.044418  -0.066230
H  -0.198528  -1.363494  -0.878109
