14
butane_opt
C  -3.937585   0.264965  -0.017655
C  -2.697471  -0.608799   0.063183
H  -4.859667  -0.364819   0.088226
H  -4.013524   0.938133  -0.954004
H  -3.884075   0.833199   0.798617
C  -1.406312   0.189014   0.048977
H  -2.699676  -1.227082  -0.736943
H  -2.780632  -1.252810   0.973004
C  -0.158883  -0.701702   0.003911
H  -1.365966   0.923652   0.912963
H  -1.437194   0.760028  -0.799001
H  -0.144038  -1.299100   0.870762
H   0.765940  -0.085331  -0.000304
H  -0.198272  -1.420752  -0.906667
