14
butane_opt
C  -3.938191   0.261274  -0.018819
C  -2.702153  -0.607848   0.080368
H  -4.862077  -0.341258  -0.056309
H  -3.916567   0.836967  -0.880740
H  -4.002368   0.946573   0.863049
C  -1.404156   0.186184   0.040286
H  -2.652077  -1.245106  -0.717341
H  -2.793708  -1.300756   1.017116
C  -0.160087  -0.702679  -0.007235
H  -1.395073   0.920542   0.924351
H  -1.459487   0.820609  -0.861472
H  -0.103738  -1.279120   0.849729
H   0.786793  -0.087715   0.029900
H  -0.171691  -1.384318  -0.855697
