butane_opt
 OpenBabel08242015413D

 14 13  0  0  0  0  0  0  0  0999 V2000
   -3.9416    0.2583    0.0273 C   0  0  0  0  0  0  0  0  0  0  0  0
   -2.6963   -0.6100    0.0519 C   0  0  0  0  0  0  0  0  0  0  0  0
   -4.8306   -0.3313   -0.0885 H   0  0  0  0  0  0  0  0  0  0  0  0
   -3.9011    0.7490   -0.8166 H   0  0  0  0  0  0  0  0  0  0  0  0
   -4.0504    1.0121    0.9352 H   0  0  0  0  0  0  0  0  0  0  0  0
   -1.4096    0.1948   -0.0107 C   0  0  0  0  0  0  0  0  0  0  0  0
   -2.7390   -1.3076   -0.8489 H   0  0  0  0  0  0  0  0  0  0  0  0
   -2.6691   -1.1954    0.9129 H   0  0  0  0  0  0  0  0  0  0  0  0
   -0.1706   -0.6980    0.0397 C   0  0  0  0  0  0  0  0  0  0  0  0
   -1.3936    0.8319    0.8115 H   0  0  0  0  0  0  0  0  0  0  0  0
   -1.3635    0.8363   -0.9193 H   0  0  0  0  0  0  0  0  0  0  0  0
   -0.0944   -1.3643    0.9664 H   0  0  0  0  0  0  0  0  0  0  0  0
    0.7584   -0.1053    0.0172 H   0  0  0  0  0  0  0  0  0  0  0  0
   -0.1231   -1.3404   -0.8118 H   0  0  0  0  0  0  0  0  0  0  0  0
  1  2  1  0  0  0  0
  1  5  1  0  0  0  0
  2  8  1  0  0  0  0
  3  1  1  0  0  0  0
  4  1  1  0  0  0  0
  6  9  1  0  0  0  0
  6  2  1  0  0  0  0
  6 10  1  0  0  0  0
  7  2  1  0  0  0  0
  9 12  1  0  0  0  0
 11  6  1  0  0  0  0
 13  9  1  0  0  0  0
 14  9  1  0  0  0  0
M  END
$$$$
