butane_opt
 OpenBabel08242015413D

 14 13  0  0  0  0  0  0  0  0999 V2000
   -3.9369    0.2634    0.0524 C   0  0  0  0  0  0  0  0  0  0  0  0
   -2.6954   -0.6082   -0.0003 C   0  0  0  0  0  0  0  0  0  0  0  0
   -4.8759   -0.3685    0.1751 H   0  0  0  0  0  0  0  0  0  0  0  0
   -4.0026    0.9472   -0.8768 H   0  0  0  0  0  0  0  0  0  0  0  0
   -3.8607    0.8797    0.8734 H   0  0  0  0  0  0  0  0  0  0  0  0
   -1.4125    0.1767   -0.0196 C   0  0  0  0  0  0  0  0  0  0  0  0
   -2.7695   -1.3683   -0.8925 H   0  0  0  0  0  0  0  0  0  0  0  0
   -2.6902   -1.1324    0.8198 H   0  0  0  0  0  0  0  0  0  0  0  0
   -0.1591   -0.6937    0.0637 C   0  0  0  0  0  0  0  0  0  0  0  0
   -1.4322    0.8569    0.8410 H   0  0  0  0  0  0  0  0  0  0  0  0
   -1.3556    0.8396   -0.9352 H   0  0  0  0  0  0  0  0  0  0  0  0
   -0.2148   -1.3406    1.0128 H   0  0  0  0  0  0  0  0  0  0  0  0
    0.7280   -0.0998    0.0315 H   0  0  0  0  0  0  0  0  0  0  0  0
   -0.1034   -1.3476   -0.7751 H   0  0  0  0  0  0  0  0  0  0  0  0
  1  3  1  0  0  0  0
  1  5  1  0  0  0  0
  2  1  1  0  0  0  0
  2  8  1  0  0  0  0
  4  1  1  0  0  0  0
  6  2  1  0  0  0  0
  6  9  1  0  0  0  0
  6 10  1  0  0  0  0
  7  2  1  0  0  0  0
  9 12  1  0  0  0  0
 11  6  1  0  0  0  0
 13  9  1  0  0  0  0
 14  9  1  0  0  0  0
M  END
$$$$
