14
butane_opt
C  -3.929336   0.258333  -0.006755
C  -2.695520  -0.616109   0.068900
H  -4.844976  -0.317849  -0.057951
H  -3.871618   0.821255  -0.882120
H  -4.021979   0.998208   0.887998
C  -1.416777   0.187740   0.024675
H  -2.705737  -1.246126  -0.719236
H  -2.785268  -1.245544   0.971620
C  -0.163630  -0.694690   0.013824
H  -1.399229   0.886550   0.897288
H  -1.422049   0.794447  -0.841607
H  -0.065569  -1.302870   0.906432
H   0.736322  -0.104532  -0.063627
H  -0.185989  -1.380789  -0.858826
