butane_opt
 OpenBabel08242015413D

 14 13  0  0  0  0  0  0  0  0999 V2000
   -3.9236    0.2524   -0.0152 C   0  0  0  0  0  0  0  0  0  0  0  0
   -2.7008   -0.5978    0.0684 C   0  0  0  0  0  0  0  0  0  0  0  0
   -4.8840   -0.3680    0.0416 H   0  0  0  0  0  0  0  0  0  0  0  0
   -3.9230    0.9299   -0.9538 H   0  0  0  0  0  0  0  0  0  0  0  0
   -3.9868    0.8554    0.7858 H   0  0  0  0  0  0  0  0  0  0  0  0
   -1.4178    0.1989    0.0596 C   0  0  0  0  0  0  0  0  0  0  0  0
   -2.6773   -1.3172   -0.7900 H   0  0  0  0  0  0  0  0  0  0  0  0
   -2.7177   -1.2554    0.9663 H   0  0  0  0  0  0  0  0  0  0  0  0
   -0.1647   -0.7021   -0.0055 C   0  0  0  0  0  0  0  0  0  0  0  0
   -1.3907    0.9240    0.9312 H   0  0  0  0  0  0  0  0  0  0  0  0
   -1.4143    0.7643   -0.8005 H   0  0  0  0  0  0  0  0  0  0  0  0
   -0.0370   -1.3652    0.8985 H   0  0  0  0  0  0  0  0  0  0  0  0
    0.7064   -0.1338   -0.0812 H   0  0  0  0  0  0  0  0  0  0  0  0
   -0.2054   -1.3258   -0.8439 H   0  0  0  0  0  0  0  0  0  0  0  0
  1  3  1  0  0  0  0
  1  2  1  0  0  0  0
  1  5  1  0  0  0  0
  2  8  1  0  0  0  0
  4  1  1  0  0  0  0
  6  2  1  0  0  0  0
  6 10  1  0  0  0  0
  7  2  1  0  0  0  0
  9  6  1  0  0  0  0
  9 12  1  0  0  0  0
 11  6  1  0  0  0  0
 13  9  1  0  0  0  0
 14  9  1  0  0  0  0
M  END
$$$$
