14
butane_opt
C  -3.937532   0.279961  -0.007621
C  -2.696569  -0.629511   0.049256
H  -4.827184  -0.302446   0.209722
H  -4.006265   0.981623  -0.956442
H  -3.916262   0.816049   0.749825
C  -1.406789   0.170227   0.041487
H  -2.711203  -1.279944  -0.786463
H  -2.675462  -1.255992   0.940106
C  -0.173798  -0.689762   0.018455
H  -1.381321   0.881244   0.890603
H  -1.379330   0.772892  -0.834214
H  -0.141683  -1.195625   0.848434
H   0.775299  -0.035648   0.035875
H  -0.193597  -1.418879  -0.895969
