14
butane_opt
C  -3.950748   0.271408  -0.005415
C  -2.694834  -0.619887   0.084381
H  -4.858983  -0.315709  -0.058493
H  -3.873921   0.906484  -0.933547
H  -4.029314   0.928375   0.845844
C  -1.399078   0.177396   0.026009
H  -2.692836  -1.294355  -0.774718
H  -2.700932  -1.232991   0.981837
C  -0.167614  -0.697193   0.006622
H  -1.367320   0.833865   0.892148
H  -1.362646   0.780106  -0.831091
H  -0.175357  -1.200134   0.855154
H   0.764931  -0.062321   0.001562
H  -0.177559  -1.395754  -0.893876
