14
butane_opt
C  -3.950172   0.274606   0.042391
C  -2.684824  -0.639150  -0.005408
H  -4.852159  -0.298337   0.197569
H  -4.103145   0.915041  -0.863533
H  -3.881441   0.949985   0.933188
C  -1.400035   0.181519  -0.018565
H  -2.743955  -1.338207  -0.892543
H  -2.710996  -1.239667   0.889451
C  -0.166344  -0.688155   0.064541
H  -1.420250   0.861472   0.833488
H  -1.353459   0.829873  -0.929574
H  -0.201748  -1.296700   0.989241
H   0.756305  -0.065581   0.045707
H  -0.098280  -1.330692  -0.762479
