butane_opt
 OpenBabel08242015413D

 14 13  0  0  0  0  0  0  0  0999 V2000
   -3.9450    0.2630    0.0359 C   0  0  0  0  0  0  0  0  0  0  0  0
   -2.7030   -0.6194    0.0288 C   0  0  0  0  0  0  0  0  0  0  0  0
   -4.8687   -0.3741   -0.1010 H   0  0  0  0  0  0  0  0  0  0  0  0
   -3.9917    0.7464   -0.7718 H   0  0  0  0  0  0  0  0  0  0  0  0
   -3.9797    1.0897    1.0042 H   0  0  0  0  0  0  0  0  0  0  0  0
   -1.3990    0.2022   -0.0180 C   0  0  0  0  0  0  0  0  0  0  0  0
   -2.7474   -1.3171   -0.8409 H   0  0  0  0  0  0  0  0  0  0  0  0
   -2.6971   -1.2020    0.8945 H   0  0  0  0  0  0  0  0  0  0  0  0
   -0.1602   -0.7045    0.0557 C   0  0  0  0  0  0  0  0  0  0  0  0
   -1.3800    0.7880    0.7652 H   0  0  0  0  0  0  0  0  0  0  0  0
   -1.3475    0.9042   -0.9398 H   0  0  0  0  0  0  0  0  0  0  0  0
   -0.1165   -1.3641    0.9908 H   0  0  0  0  0  0  0  0  0  0  0  0
    0.7414   -0.1282   -0.0146 H   0  0  0  0  0  0  0  0  0  0  0  0
   -0.1370   -1.3200   -0.7607 H   0  0  0  0  0  0  0  0  0  0  0  0
  1  5  1  0  0  0  0
  2  1  1  0  0  0  0
  2  8  1  0  0  0  0
  3  1  1  0  0  0  0
  4  1  1  0  0  0  0
  6  2  1  0  0  0  0
  6  9  1  0  0  0  0
  6 10  1  0  0  0  0
  7  2  1  0  0  0  0
  9 12  1  0  0  0  0
 11  6  1  0  0  0  0
 13  9  1  0  0  0  0
 14  9  1  0  0  0  0
M  END
$$$$
