butane_opt
 OpenBabel08242015413D

 14 13  0  0  0  0  0  0  0  0999 V2000
   -3.9189    0.2469    0.0418 C   0  0  0  0  0  0  0  0  0  0  0  0
   -2.6960   -0.5961    0.0051 C   0  0  0  0  0  0  0  0  0  0  0  0
   -4.8681   -0.3487    0.0279 H   0  0  0  0  0  0  0  0  0  0  0  0
   -3.9841    0.8104   -0.8255 H   0  0  0  0  0  0  0  0  0  0  0  0
   -3.9430    0.9858    0.9540 H   0  0  0  0  0  0  0  0  0  0  0  0
   -1.4168    0.1976   -0.0162 C   0  0  0  0  0  0  0  0  0  0  0  0
   -2.7442   -1.3000   -0.8646 H   0  0  0  0  0  0  0  0  0  0  0  0
   -2.7419   -1.2425    0.9210 H   0  0  0  0  0  0  0  0  0  0  0  0
   -0.1634   -0.7031    0.0564 C   0  0  0  0  0  0  0  0  0  0  0  0
   -1.4707    0.8945    0.8408 H   0  0  0  0  0  0  0  0  0  0  0  0
   -1.3968    0.8240   -0.8778 H   0  0  0  0  0  0  0  0  0  0  0  0
   -0.0830   -1.4309    1.0267 H   0  0  0  0  0  0  0  0  0  0  0  0
    0.7364   -0.1204   -0.0411 H   0  0  0  0  0  0  0  0  0  0  0  0
   -0.1772   -1.2924   -0.7509 H   0  0  0  0  0  0  0  0  0  0  0  0
  1  5  1  0  0  0  0
  2  1  1  0  0  0  0
  2  8  1  0  0  0  0
  3  1  1  0  0  0  0
  4  1  1  0  0  0  0
  6  2  1  0  0  0  0
  6  9  1  0  0  0  0
  6 10  1  0  0  0  0
  7  2  1  0  0  0  0
  9 12  1  0  0  0  0
 11  6  1  0  0  0  0
 13  9  1  0  0  0  0
 14  9  1  0  0  0  0
M  END
$$$$
