butane_opt
 OpenBabel08242015413D

 14 13  0  0  0  0  0  0  0  0999 V2000
   -3.9477    0.2768    0.0512 C   0  0  0  0  0  0  0  0  0  0  0  0
   -2.7098   -0.6412    0.0013 C   0  0  0  0  0  0  0  0  0  0  0  0
   -4.8362   -0.2893    0.1002 H   0  0  0  0  0  0  0  0  0  0  0  0
   -4.0511    0.8735   -0.8139 H   0  0  0  0  0  0  0  0  0  0  0  0
   -3.9330    1.0013    0.9570 H   0  0  0  0  0  0  0  0  0  0  0  0
   -1.3980    0.1808   -0.0437 C   0  0  0  0  0  0  0  0  0  0  0  0
   -2.7677   -1.2829   -0.8231 H   0  0  0  0  0  0  0  0  0  0  0  0
   -2.6358   -1.2782    0.8793 H   0  0  0  0  0  0  0  0  0  0  0  0
   -0.1544   -0.6877    0.0789 C   0  0  0  0  0  0  0  0  0  0  0  0
   -1.4042    0.8357    0.7990 H   0  0  0  0  0  0  0  0  0  0  0  0
   -1.3115    0.8508   -0.9541 H   0  0  0  0  0  0  0  0  0  0  0  0
   -0.2307   -1.2398    0.9471 H   0  0  0  0  0  0  0  0  0  0  0  0
    0.7554   -0.0830    0.1357 H   0  0  0  0  0  0  0  0  0  0  0  0
   -0.0925   -1.4074   -0.8499 H   0  0  0  0  0  0  0  0  0  0  0  0
  1  3  1  0  0  0  0
  1  5  1  0  0  0  0
  2  1  1  0  0  0  0
  2  8  1  0  0  0  0
  4  1  1  0  0  0  0
  6  2  1  0  0  0  0
  6  9  1  0  0  0  0
  6 10  1  0  0  0  0
  7  2  1  0  0  0  0
  9 13  1  0  0  0  0
  9 12  1  0  0  0  0
 11  6  1  0  0  0  0
 14  9  1  0  0  0  0
M  END
$$$$
