butane_opt
 OpenBabel08242015413D

 14 13  0  0  0  0  0  0  0  0999 V2000
   -3.9304    0.2575   -0.0130 C   0  0  0  0  0  0  0  0  0  0  0  0
   -2.7059   -0.5988    0.0695 C   0  0  0  0  0  0  0  0  0  0  0  0
   -4.8399   -0.3691   -0.0303 H   0  0  0  0  0  0  0  0  0  0  0  0
   -3.8957    0.8746   -0.9154 H   0  0  0  0  0  0  0  0  0  0  0  0
   -3.9952    0.9072    0.8238 H   0  0  0  0  0  0  0  0  0  0  0  0
   -1.4035    0.1935    0.0478 C   0  0  0  0  0  0  0  0  0  0  0  0
   -2.7314   -1.2566   -0.7738 H   0  0  0  0  0  0  0  0  0  0  0  0
   -2.7118   -1.2627    0.9841 H   0  0  0  0  0  0  0  0  0  0  0  0
   -0.1678   -0.7118    0.0017 C   0  0  0  0  0  0  0  0  0  0  0  0
   -1.4012    0.9128    0.9264 H   0  0  0  0  0  0  0  0  0  0  0  0
   -1.4338    0.7879   -0.7875 H   0  0  0  0  0  0  0  0  0  0  0  0
   -0.1024   -1.3395    0.8770 H   0  0  0  0  0  0  0  0  0  0  0  0
    0.7714   -0.0895   -0.1016 H   0  0  0  0  0  0  0  0  0  0  0  0
   -0.1861   -1.3200   -0.8402 H   0  0  0  0  0  0  0  0  0  0  0  0
  1  2  1  0  0  0  0
  1  5  1  0  0  0  0
  2  8  1  0  0  0  0
  3  1  1  0  0  0  0
  4  1  1  0  0  0  0
  6  2  1  0  0  0  0
  6 10  1  0  0  0  0
  7  2  1  0  0  0  0
  9  6  1  0  0  0  0
  9 12  1  0  0  0  0
 11  6  1  0  0  0  0
 13  9  1  0  0  0  0
 14  9  1  0  0  0  0
M  END
$$$$
