14
butane_opt
C  -3.930470   0.255346  -0.009354
C  -2.695077  -0.607448   0.059517
H  -4.849053  -0.341052   0.033087
H  -3.926488   0.929487  -0.938117
H  -3.956257   0.875791   0.821530
C  -1.405650   0.195896   0.055081
H  -2.750808  -1.310004  -0.826417
H  -2.733177  -1.209367   0.948224
C  -0.170213  -0.706521   0.002175
H  -1.377560   0.878236   0.937381
H  -1.458738   0.837393  -0.825087
H  -0.109372  -1.356654   0.905214
H   0.734671  -0.103307  -0.106692
H  -0.175725  -1.317955  -0.803419
