14
butane_opt
C  -3.957925   0.278658   0.026980
C  -2.699776  -0.634243   0.022153
H  -4.858823  -0.287023   0.149717
H  -4.055504   0.950821  -0.904345
H  -3.966478   0.845598   0.818664
C  -1.404815   0.174990   0.014529
H  -2.712098  -1.328473  -0.856888
H  -2.702165  -1.212068   0.892595
C  -0.141982  -0.685173   0.035939
H  -1.339257   0.852786   0.853069
H  -1.411116   0.793893  -0.889448
H  -0.175568  -1.305887   0.925137
H   0.794441  -0.051996   0.064994
H  -0.146024  -1.335070  -0.807429
