butane_opt
 OpenBabel08242015413D

 14 13  0  0  0  0  0  0  0  0999 V2000
   -3.9527    0.2749    0.0029 C   0  0  0  0  0  0  0  0  0  0  0  0
   -2.6943   -0.6303    0.0508 C   0  0  0  0  0  0  0  0  0  0  0  0
   -4.8671   -0.3228    0.0604 H   0  0  0  0  0  0  0  0  0  0  0  0
   -4.0253    0.9017   -0.8929 H   0  0  0  0  0  0  0  0  0  0  0  0
   -3.9950    0.9211    0.8592 H   0  0  0  0  0  0  0  0  0  0  0  0
   -1.4014    0.1820    0.0105 C   0  0  0  0  0  0  0  0  0  0  0  0
   -2.7302   -1.2664   -0.7400 H   0  0  0  0  0  0  0  0  0  0  0  0
   -2.7069   -1.2992    0.9703 H   0  0  0  0  0  0  0  0  0  0  0  0
   -0.1515   -0.6922    0.0230 C   0  0  0  0  0  0  0  0  0  0  0  0
   -1.3942    0.8797    0.8811 H   0  0  0  0  0  0  0  0  0  0  0  0
   -1.3941    0.7760   -0.8472 H   0  0  0  0  0  0  0  0  0  0  0  0
   -0.1394   -1.2093    0.8711 H   0  0  0  0  0  0  0  0  0  0  0  0
    0.7747   -0.0772    0.1034 H   0  0  0  0  0  0  0  0  0  0  0  0
   -0.1475   -1.3875   -0.8805 H   0  0  0  0  0  0  0  0  0  0  0  0
  1  2  1  0  0  0  0
  1  3  1  0  0  0  0
  1  5  1  0  0  0  0
  2  8  1  0  0  0  0
  4  1  1  0  0  0  0
  6  9  1  0  0  0  0
  6  2  1  0  0  0  0
  6 10  1  0  0  0  0
  7  2  1  0  0  0  0
  9 13  1  0  0  0  0
  9 12  1  0  0  0  0
 11  6  1  0  0  0  0
 14  9  1  0  0  0  0
M  END
$$$$
