14
butane_opt
C  -3.953528   0.274663  -0.007810
C  -2.702874  -0.621067   0.076989
H  -4.860132  -0.323569   0.033312
H  -3.993543   0.918628  -0.918461
H  -4.027073   0.903436   0.820735
C  -1.392527   0.178056   0.023776
H  -2.721995  -1.263659  -0.737261
H  -2.764554  -1.311000   1.004369
C  -0.152227  -0.687505  -0.002707
H  -1.354714   0.896359   0.898661
H  -1.383638   0.777919  -0.848946
H  -0.232638  -1.220092   0.862964
H   0.785393  -0.077343   0.142608
H  -0.059187  -1.500969  -0.919212
