butane_opt
 OpenBabel08242015413D

 14 13  0  0  0  0  0  0  0  0999 V2000
   -3.9433    0.2592    0.0367 C   0  0  0  0  0  0  0  0  0  0  0  0
   -2.7121   -0.6104    0.0296 C   0  0  0  0  0  0  0  0  0  0  0  0
   -4.8600   -0.3601   -0.0872 H   0  0  0  0  0  0  0  0  0  0  0  0
   -3.9378    0.7275   -0.7686 H   0  0  0  0  0  0  0  0  0  0  0  0
   -4.0084    1.0187    0.9858 H   0  0  0  0  0  0  0  0  0  0  0  0
   -1.4146    0.2015   -0.0218 C   0  0  0  0  0  0  0  0  0  0  0  0
   -2.7468   -1.2740   -0.8419 H   0  0  0  0  0  0  0  0  0  0  0  0
   -2.7059   -1.2348    0.9247 H   0  0  0  0  0  0  0  0  0  0  0  0
   -0.1404   -0.7103    0.0430 C   0  0  0  0  0  0  0  0  0  0  0  0
   -1.3949    0.8924    0.8440 H   0  0  0  0  0  0  0  0  0  0  0  0
   -1.3701    0.8673   -0.9383 H   0  0  0  0  0  0  0  0  0  0  0  0
   -0.1358   -1.3946    1.0026 H   0  0  0  0  0  0  0  0  0  0  0  0
    0.7707   -0.1205    0.0395 H   0  0  0  0  0  0  0  0  0  0  0  0
   -0.1015   -1.2828   -0.7497 H   0  0  0  0  0  0  0  0  0  0  0  0
  1  5  1  0  0  0  0
  2  1  1  0  0  0  0
  2  8  1  0  0  0  0
  3  1  1  0  0  0  0
  4  1  1  0  0  0  0
  6  2  1  0  0  0  0
  6  9  1  0  0  0  0
  6 10  1  0  0  0  0
  7  2  1  0  0  0  0
  9 12  1  0  0  0  0
 11  6  1  0  0  0  0
 13  9  1  0  0  0  0
 14  9  1  0  0  0  0
M  END
$$$$
