14
butane_opt
C  -3.932017   0.281642   0.034629
C  -2.689876  -0.633327   0.018039
H  -4.818328  -0.315602  -0.002257
H  -4.004335   0.805792  -0.805031
H  -3.920913   1.021872   0.942577
C  -1.404812   0.180670  -0.006638
H  -2.738239  -1.301778  -0.824660
H  -2.737331  -1.279888   0.888530
C  -0.180161  -0.687727   0.048221
H  -1.433164   0.825406   0.810485
H  -1.360873   0.793039  -0.901309
H  -0.164450  -1.366892   0.981728
H   0.769658  -0.044439  -0.017697
H  -0.147992  -1.287820  -0.752762
