14
butane_opt
C  -3.941931   0.256952   0.028387
C  -2.709326  -0.604883   0.012326
H  -4.850595  -0.329072   0.058402
H  -3.980050   0.824434  -0.811138
H  -3.881146   0.938646   0.923225
C  -1.405566   0.195911   0.010074
H  -2.720299  -1.308423  -0.878673
H  -2.699032  -1.190748   0.868143
C  -0.159435  -0.709193   0.047658
H  -1.398773   0.837565   0.821176
H  -1.386343   0.876686  -0.902695
H  -0.101840  -1.406299   1.001925
H   0.779928  -0.116339  -0.066437
H  -0.187496  -1.263588  -0.740690
