14
butane_opt
C  -3.955619   0.276127  -0.003612
C  -2.705634  -0.641460   0.067039
H  -4.812058  -0.276325   0.066994
H  -4.009010   0.965018  -0.936110
H  -3.993799   0.914111   0.833265
C  -1.386519   0.182059   0.022948
H  -2.694557  -1.272659  -0.746344
H  -2.737470  -1.307497   0.980654
C  -0.160393  -0.693230   0.006374
H  -1.369470   0.897715   0.893359
H  -1.383363   0.794947  -0.829991
H  -0.238694  -1.184839   0.816529
H   0.764937  -0.064124   0.120827
H  -0.055009  -1.415477  -0.892281
