14
butane_opt
C  -3.957514   0.271631  -0.011183
C  -2.700374  -0.625437   0.059247
H  -4.904666  -0.333865   0.180171
H  -3.999320   1.029445  -0.988386
H  -3.963417   0.804079   0.756216
C  -1.387023   0.181795   0.053755
H  -2.699617  -1.271991  -0.781986
H  -2.715019  -1.228022   0.915728
C  -0.162877  -0.694243  -0.001747
H  -1.352340   0.877999   0.924989
H  -1.417972   0.799390  -0.822337
H  -0.130898  -1.250939   0.883609
H   0.784511  -0.081057   0.057372
H  -0.133868  -1.423295  -0.901409
