butane_opt
 OpenBabel08242015413D

 14 13  0  0  0  0  0  0  0  0999 V2000
   -3.9424    0.2787    0.0390 C   0  0  0  0  0  0  0  0  0  0  0  0
   -2.6851   -0.6375    0.0407 C   0  0  0  0  0  0  0  0  0  0  0  0
   -4.8432   -0.2888   -0.1342 H   0  0  0  0  0  0  0  0  0  0  0  0
   -3.9265    0.7663   -0.7852 H   0  0  0  0  0  0  0  0  0  0  0  0
   -4.0249    1.0603    0.9499 H   0  0  0  0  0  0  0  0  0  0  0  0
   -1.4058    0.1750   -0.0188 C   0  0  0  0  0  0  0  0  0  0  0  0
   -2.7468   -1.3543   -0.8530 H   0  0  0  0  0  0  0  0  0  0  0  0
   -2.6852   -1.2336    0.9142 H   0  0  0  0  0  0  0  0  0  0  0  0
   -0.1749   -0.6835    0.0490 C   0  0  0  0  0  0  0  0  0  0  0  0
   -1.4240    0.8352    0.8097 H   0  0  0  0  0  0  0  0  0  0  0  0
   -1.3624    0.8461   -0.9633 H   0  0  0  0  0  0  0  0  0  0  0  0
   -0.1376   -1.3366    0.9666 H   0  0  0  0  0  0  0  0  0  0  0  0
    0.7671   -0.0482   -0.0105 H   0  0  0  0  0  0  0  0  0  0  0  0
   -0.1526   -1.3043   -0.7618 H   0  0  0  0  0  0  0  0  0  0  0  0
  1  2  1  0  0  0  0
  1  5  1  0  0  0  0
  2  8  1  0  0  0  0
  3  1  1  0  0  0  0
  4  1  1  0  0  0  0
  6  2  1  0  0  0  0
  6  9  1  0  0  0  0
  6 10  1  0  0  0  0
  7  2  1  0  0  0  0
  9 12  1  0  0  0  0
 11  6  1  0  0  0  0
 13  9  1  0  0  0  0
 14  9  1  0  0  0  0
M  END
$$$$
