butane_opt
 OpenBabel08242015413D

 14 13  0  0  0  0  0  0  0  0999 V2000
   -3.9308    0.2806    0.0442 C   0  0  0  0  0  0  0  0  0  0  0  0
   -2.6957   -0.6353    0.0156 C   0  0  0  0  0  0  0  0  0  0  0  0
   -4.8334   -0.2978   -0.0135 H   0  0  0  0  0  0  0  0  0  0  0  0
   -3.9862    0.8376   -0.8008 H   0  0  0  0  0  0  0  0  0  0  0  0
   -3.9656    1.0231    0.9830 H   0  0  0  0  0  0  0  0  0  0  0  0
   -1.3986    0.1752   -0.0353 C   0  0  0  0  0  0  0  0  0  0  0  0
   -2.7502   -1.3175   -0.8189 H   0  0  0  0  0  0  0  0  0  0  0  0
   -2.6782   -1.3007    0.9236 H   0  0  0  0  0  0  0  0  0  0  0  0
   -0.1733   -0.6787    0.0654 C   0  0  0  0  0  0  0  0  0  0  0  0
   -1.4191    0.8303    0.7901 H   0  0  0  0  0  0  0  0  0  0  0  0
   -1.4042    0.8096   -0.9453 H   0  0  0  0  0  0  0  0  0  0  0  0
   -0.2040   -1.2844    0.9655 H   0  0  0  0  0  0  0  0  0  0  0  0
    0.7686   -0.0792    0.1032 H   0  0  0  0  0  0  0  0  0  0  0  0
   -0.1776   -1.3857   -0.8226 H   0  0  0  0  0  0  0  0  0  0  0  0
  1  5  1  0  0  0  0
  2  1  1  0  0  0  0
  2  8  1  0  0  0  0
  3  1  1  0  0  0  0
  4  1  1  0  0  0  0
  6  2  1  0  0  0  0
  6  9  1  0  0  0  0
  6 10  1  0  0  0  0
  7  2  1  0  0  0  0
  9 13  1  0  0  0  0
  9 12  1  0  0  0  0
 11  6  1  0  0  0  0
 14  9  1  0  0  0  0
M  END
$$$$
