14
butane_opt
C  -3.947093   0.282038   0.040753
C  -2.690141  -0.625165   0.023987
H  -4.840844  -0.299083   0.052954
H  -3.967294   0.801982  -0.825564
H  -3.960861   0.970708   0.922126
C  -1.407088   0.165777  -0.026794
H  -2.729416  -1.342935  -0.847540
H  -2.707413  -1.255438   0.902641
C  -0.168320  -0.681695   0.048542
H  -1.402801   0.848675   0.837610
H  -1.367683   0.821610  -0.919034
H  -0.219300  -1.315799   0.974785
H   0.779334  -0.049729   0.102938
H  -0.072272  -1.333121  -0.790342
