14
butane_opt
C  -3.940791   0.262091   0.042788
C  -2.698520  -0.612743   0.013497
H  -4.856304  -0.338660   0.129646
H  -3.963599   0.908685  -0.869397
H  -3.869940   0.872729   0.913434
C  -1.414335   0.196490  -0.020542
H  -2.729967  -1.348497  -0.875786
H  -2.661402  -1.207174   0.845646
C  -0.166039  -0.699856   0.060272
H  -1.427859   0.862588   0.831399
H  -1.343075   0.811728  -0.910660
H  -0.190901  -1.295530   0.948381
H   0.729249  -0.136037   0.040326
H  -0.074837  -1.347262  -0.776469
