butane_opt
 OpenBabel08242015413D

 14 13  0  0  0  0  0  0  0  0999 V2000
   -3.9432    0.2552    0.0468 C   0  0  0  0  0  0  0  0  0  0  0  0
   -2.7005   -0.6059   -0.0003 C   0  0  0  0  0  0  0  0  0  0  0  0
   -4.8537   -0.3655    0.0546 H   0  0  0  0  0  0  0  0  0  0  0  0
   -3.9059    0.8625   -0.8561 H   0  0  0  0  0  0  0  0  0  0  0  0
   -3.9521    0.9721    0.9390 H   0  0  0  0  0  0  0  0  0  0  0  0
   -1.4034    0.1930   -0.0028 C   0  0  0  0  0  0  0  0  0  0  0  0
   -2.7811   -1.3074   -0.8916 H   0  0  0  0  0  0  0  0  0  0  0  0
   -2.6924   -1.1470    0.8491 H   0  0  0  0  0  0  0  0  0  0  0  0
   -0.1601   -0.7066    0.0588 C   0  0  0  0  0  0  0  0  0  0  0  0
   -1.4038    0.8524    0.8235 H   0  0  0  0  0  0  0  0  0  0  0  0
   -1.3977    0.8297   -0.9130 H   0  0  0  0  0  0  0  0  0  0  0  0
   -0.1055   -1.4333    1.0381 H   0  0  0  0  0  0  0  0  0  0  0  0
    0.7658   -0.1054   -0.1033 H   0  0  0  0  0  0  0  0  0  0  0  0
   -0.2051   -1.2587   -0.7123 H   0  0  0  0  0  0  0  0  0  0  0  0
  1  3  1  0  0  0  0
  1  5  1  0  0  0  0
  2  1  1  0  0  0  0
  2  8  1  0  0  0  0
  4  1  1  0  0  0  0
  6  2  1  0  0  0  0
  6  9  1  0  0  0  0
  6 10  1  0  0  0  0
  7  2  1  0  0  0  0
  9 12  1  0  0  0  0
 11  6  1  0  0  0  0
 13  9  1  0  0  0  0
 14  9  1  0  0  0  0
M  END
$$$$
