14
butane_opt
C  -3.945918   0.257300   0.000464
C  -2.713813  -0.603126   0.068990
H  -4.869148  -0.365833  -0.025371
H  -3.909643   0.852187  -0.913293
H  -3.992331   0.923002   0.865843
C  -1.404091   0.195732   0.024349
H  -2.674021  -1.281182  -0.776491
H  -2.752580  -1.217573   0.983989
C  -0.157129  -0.701980   0.013366
H  -1.336364   0.873369   0.883960
H  -1.416790   0.829744  -0.875383
H  -0.110051  -1.313017   0.882343
H   0.745505  -0.114380   0.017319
H  -0.057253  -1.437699  -0.889747
