butane_opt
 OpenBabel08242015413D

 14 13  0  0  0  0  0  0  0  0999 V2000
   -3.9396    0.2771   -0.0121 C   0  0  0  0  0  0  0  0  0  0  0  0
   -2.6854   -0.6334    0.0733 C   0  0  0  0  0  0  0  0  0  0  0  0
   -4.8255   -0.3029    0.0614 H   0  0  0  0  0  0  0  0  0  0  0  0
   -3.9984    0.9483   -0.9370 H   0  0  0  0  0  0  0  0  0  0  0  0
   -3.9449    0.8892    0.8281 H   0  0  0  0  0  0  0  0  0  0  0  0
   -1.4115    0.1738    0.0275 C   0  0  0  0  0  0  0  0  0  0  0  0
   -2.6859   -1.2781   -0.7215 H   0  0  0  0  0  0  0  0  0  0  0  0
   -2.7622   -1.3130    1.0177 H   0  0  0  0  0  0  0  0  0  0  0  0
   -0.1730   -0.6815    0.0056 C   0  0  0  0  0  0  0  0  0  0  0  0
   -1.3906    0.8720    0.8931 H   0  0  0  0  0  0  0  0  0  0  0  0
   -1.3944    0.7998   -0.8602 H   0  0  0  0  0  0  0  0  0  0  0  0
   -0.1926   -1.1605    0.8273 H   0  0  0  0  0  0  0  0  0  0  0  0
    0.7716   -0.0585    0.1475 H   0  0  0  0  0  0  0  0  0  0  0  0
   -0.1007   -1.4940   -0.9716 H   0  0  0  0  0  0  0  0  0  0  0  0
  1  3  1  0  0  0  0
  1  2  1  0  0  0  0
  1  5  1  0  0  0  0
  2  8  1  0  0  0  0
  4  1  1  0  0  0  0
  6  2  1  0  0  0  0
  6 10  1  0  0  0  0
  7  2  1  0  0  0  0
  9  6  1  0  0  0  0
  9 13  1  0  0  0  0
  9 12  1  0  0  0  0
 11  6  1  0  0  0  0
 14  9  1  0  0  0  0
M  END
$$$$
