14
butane_opt
C  -3.945116   0.266999   0.000204
C  -2.713403  -0.606205   0.051915
H  -4.842402  -0.341339   0.121149
H  -4.023657   1.023564  -0.968510
H  -3.943518   0.779401   0.764678
C  -1.406343   0.178748   0.046696
H  -2.738554  -1.305158  -0.801237
H  -2.750965  -1.256450   0.960502
C  -0.142919  -0.698237   0.009949
H  -1.398356   0.880174   0.898315
H  -1.334797   0.799804  -0.862941
H  -0.116519  -1.219019   0.851582
H   0.769461  -0.100857   0.047490
H  -0.150289  -1.423469  -0.905183
