butane_opt
 OpenBabel08242015413D

 14 13  0  0  0  0  0  0  0  0999 V2000
   -3.9422    0.2639    0.0344 C   0  0  0  0  0  0  0  0  0  0  0  0
   -2.7104   -0.6203    0.0378 C   0  0  0  0  0  0  0  0  0  0  0  0
   -4.8516   -0.2993   -0.0804 H   0  0  0  0  0  0  0  0  0  0  0  0
   -3.9225    0.7559   -0.8076 H   0  0  0  0  0  0  0  0  0  0  0  0
   -4.0347    1.0497    0.9601 H   0  0  0  0  0  0  0  0  0  0  0  0
   -1.3995    0.1928   -0.0090 C   0  0  0  0  0  0  0  0  0  0  0  0
   -2.7854   -1.3527   -0.8679 H   0  0  0  0  0  0  0  0  0  0  0  0
   -2.7513   -1.2045    0.9181 H   0  0  0  0  0  0  0  0  0  0  0  0
   -0.1521   -0.6994    0.0442 C   0  0  0  0  0  0  0  0  0  0  0  0
   -1.4082    0.8359    0.8115 H   0  0  0  0  0  0  0  0  0  0  0  0
   -1.3823    0.8842   -0.9482 H   0  0  0  0  0  0  0  0  0  0  0  0
   -0.1220   -1.3719    0.9671 H   0  0  0  0  0  0  0  0  0  0  0  0
    0.7493   -0.1217   -0.0295 H   0  0  0  0  0  0  0  0  0  0  0  0
   -0.0683   -1.2910   -0.7550 H   0  0  0  0  0  0  0  0  0  0  0  0
  1  2  1  0  0  0  0
  1  5  1  0  0  0  0
  2  8  1  0  0  0  0
  3  1  1  0  0  0  0
  4  1  1  0  0  0  0
  6  2  1  0  0  0  0
  6  9  1  0  0  0  0
  6 10  1  0  0  0  0
  7  2  1  0  0  0  0
  9 12  1  0  0  0  0
 11  6  1  0  0  0  0
 13  9  1  0  0  0  0
 14  9  1  0  0  0  0
M  END
$$$$
