14
butane_opt
C  -3.951314   0.261314   0.042470
C  -2.703866  -0.600541  -0.006527
H  -4.880943  -0.368410   0.159242
H  -4.026581   0.912169  -0.893158
H  -3.886164   0.866204   0.888558
C  -1.397242   0.193182  -0.002090
H  -2.731681  -1.306400  -0.860748
H  -2.754703  -1.237950   0.909160
C  -0.150764  -0.698908   0.057928
H  -1.418448   0.866408   0.867424
H  -1.342861   0.811487  -0.902342
H  -0.146347  -1.354691   0.999383
H   0.732817  -0.137406  -0.031507
H  -0.125632  -1.381831  -0.806263
