14
butane_opt
C  -3.930970   0.261323  -0.012877
C  -2.700837  -0.614702   0.072557
H  -4.825539  -0.298897   0.021953
H  -3.925189   0.918830  -0.963537
H  -3.966775   0.856846   0.805798
C  -1.410388   0.181887   0.050783
H  -2.707667  -1.297810  -0.800371
H  -2.754492  -1.191698   0.937752
C  -0.164580  -0.695317   0.004856
H  -1.322697   0.895125   0.942110
H  -1.479926   0.814312  -0.816294
H  -0.104264  -1.318148   0.892213
H   0.717674  -0.112353  -0.099677
H  -0.175857  -1.338433  -0.865771
