butane_opt
 OpenBabel08242015413D

 14 13  0  0  0  0  0  0  0  0999 V2000
   -3.9559    0.2782    0.0474 C   0  0  0  0  0  0  0  0  0  0  0  0
   -2.7036   -0.6374   -0.0114 C   0  0  0  0  0  0  0  0  0  0  0  0
   -4.8550   -0.2975    0.1792 H   0  0  0  0  0  0  0  0  0  0  0  0
   -4.0709    0.9562   -0.8681 H   0  0  0  0  0  0  0  0  0  0  0  0
   -3.9240    0.8722    0.8796 H   0  0  0  0  0  0  0  0  0  0  0  0
   -1.3847    0.1875   -0.0095 C   0  0  0  0  0  0  0  0  0  0  0  0
   -2.7289   -1.3075   -0.8806 H   0  0  0  0  0  0  0  0  0  0  0  0
   -2.6913   -1.2796    0.8893 H   0  0  0  0  0  0  0  0  0  0  0  0
   -0.1679   -0.6859    0.0620 C   0  0  0  0  0  0  0  0  0  0  0  0
   -1.3973    0.8705    0.8452 H   0  0  0  0  0  0  0  0  0  0  0  0
   -1.3440    0.8215   -0.9123 H   0  0  0  0  0  0  0  0  0  0  0  0
   -0.1059   -1.3467    0.9690 H   0  0  0  0  0  0  0  0  0  0  0  0
    0.7703   -0.0764    0.0660 H   0  0  0  0  0  0  0  0  0  0  0  0
   -0.1401   -1.3841   -0.7920 H   0  0  0  0  0  0  0  0  0  0  0  0
  1  3  1  0  0  0  0
  1  5  1  0  0  0  0
  2  6  1  0  0  0  0
  2  1  1  0  0  0  0
  2  8  1  0  0  0  0
  4  1  1  0  0  0  0
  6  9  1  0  0  0  0
  6 10  1  0  0  0  0
  7  2  1  0  0  0  0
  9 13  1  0  0  0  0
  9 12  1  0  0  0  0
 11  6  1  0  0  0  0
 14  9  1  0  0  0  0
M  END
$$$$
