butane_opt
 OpenBabel08242015413D

 14 13  0  0  0  0  0  0  0  0999 V2000
   -3.9326    0.2679   -0.0151 C   0  0  0  0  0  0  0  0  0  0  0  0
   -2.7018   -0.6062    0.0841 C   0  0  0  0  0  0  0  0  0  0  0  0
   -4.8985   -0.3951   -0.1006 H   0  0  0  0  0  0  0  0  0  0  0  0
   -3.8214    0.8319   -0.8962 H   0  0  0  0  0  0  0  0  0  0  0  0
   -4.0591    0.9257    0.8309 H   0  0  0  0  0  0  0  0  0  0  0  0
   -1.4012    0.1834    0.0472 C   0  0  0  0  0  0  0  0  0  0  0  0
   -2.7064   -1.2561   -0.7472 H   0  0  0  0  0  0  0  0  0  0  0  0
   -2.7246   -1.2498    1.0156 H   0  0  0  0  0  0  0  0  0  0  0  0
   -0.1668   -0.7027   -0.0014 C   0  0  0  0  0  0  0  0  0  0  0  0
   -1.3630    0.8963    0.9267 H   0  0  0  0  0  0  0  0  0  0  0  0
   -1.4402    0.8513   -0.8715 H   0  0  0  0  0  0  0  0  0  0  0  0
   -0.1021   -1.2939    0.8440 H   0  0  0  0  0  0  0  0  0  0  0  0
    0.7316   -0.1016   -0.0536 H   0  0  0  0  0  0  0  0  0  0  0  0
   -0.2035   -1.4034   -0.8848 H   0  0  0  0  0  0  0  0  0  0  0  0
  1  2  1  0  0  0  0
  1  5  1  0  0  0  0
  2  8  1  0  0  0  0
  3  1  1  0  0  0  0
  4  1  1  0  0  0  0
  6  2  1  0  0  0  0
  6 10  1  0  0  0  0
  7  2  1  0  0  0  0
  9  6  1  0  0  0  0
  9 12  1  0  0  0  0
 11  6  1  0  0  0  0
 13  9  1  0  0  0  0
 14  9  1  0  0  0  0
M  END
$$$$
