butane_opt
 OpenBabel08242015413D

 14 13  0  0  0  0  0  0  0  0999 V2000
   -3.9517    0.2686   -0.0191 C   0  0  0  0  0  0  0  0  0  0  0  0
   -2.7059   -0.6283    0.0852 C   0  0  0  0  0  0  0  0  0  0  0  0
   -4.8494   -0.3120   -0.0711 H   0  0  0  0  0  0  0  0  0  0  0  0
   -3.9471    0.8342   -0.9078 H   0  0  0  0  0  0  0  0  0  0  0  0
   -4.0591    1.0280    0.8825 H   0  0  0  0  0  0  0  0  0  0  0  0
   -1.3978    0.1916    0.0463 C   0  0  0  0  0  0  0  0  0  0  0  0
   -2.6601   -1.3217   -0.7715 H   0  0  0  0  0  0  0  0  0  0  0  0
   -2.7585   -1.2983    1.0068 H   0  0  0  0  0  0  0  0  0  0  0  0
   -0.1544   -0.6936    0.0023 C   0  0  0  0  0  0  0  0  0  0  0  0
   -1.3392    0.8428    0.8502 H   0  0  0  0  0  0  0  0  0  0  0  0
   -1.4305    0.8432   -0.8597 H   0  0  0  0  0  0  0  0  0  0  0  0
   -0.0608   -1.2790    0.8861 H   0  0  0  0  0  0  0  0  0  0  0  0
    0.7720   -0.0729   -0.0434 H   0  0  0  0  0  0  0  0  0  0  0  0
   -0.1744   -1.3925   -0.8959 H   0  0  0  0  0  0  0  0  0  0  0  0
  1  2  1  0  0  0  0
  1  5  1  0  0  0  0
  2  8  1  0  0  0  0
  3  1  1  0  0  0  0
  4  1  1  0  0  0  0
  6  2  1  0  0  0  0
  6 10  1  0  0  0  0
  7  2  1  0  0  0  0
  9  6  1  0  0  0  0
  9 12  1  0  0  0  0
 11  6  1  0  0  0  0
 13  9  1  0  0  0  0
 14  9  1  0  0  0  0
M  END
$$$$
