14
butane_opt
C  -3.937035   0.255874   0.023258
C  -2.696364  -0.607500   0.020123
H  -4.841764  -0.348793   0.045305
H  -3.952009   0.834625  -0.854778
H  -3.962470   0.945611   0.916232
C  -1.414497   0.198914   0.018209
H  -2.742326  -1.321187  -0.860166
H  -2.682619  -1.187455   0.870152
C  -0.154340  -0.707444   0.043526
H  -1.406748   0.840301   0.851826
H  -1.404698   0.833962  -0.911938
H  -0.085694  -1.380295   0.990424
H   0.743567  -0.116087  -0.118776
H  -0.251345  -1.247733  -0.733963
