14
butane_opt
C  -3.953605   0.269482  -0.004389
C  -2.704715  -0.613149   0.052902
H  -4.851547  -0.308820   0.125102
H  -3.976173   1.024541  -0.982978
H  -3.984626   0.810159   0.770639
C  -1.404406   0.174999   0.043140
H  -2.746779  -1.340131  -0.800863
H  -2.712247  -1.258166   0.966761
C  -0.153275  -0.692809   0.013217
H  -1.327421   0.896554   0.937345
H  -1.395361   0.760514  -0.814378
H  -0.099266  -1.243390   0.864380
H   0.806874  -0.080265  -0.030430
H  -0.152264  -1.380136  -0.875176
