butane_opt
 OpenBabel08242015413D

 14 13  0  0  0  0  0  0  0  0999 V2000
   -3.9423    0.2531    0.0232 C   0  0  0  0  0  0  0  0  0  0  0  0
   -2.6986   -0.5964    0.0374 C   0  0  0  0  0  0  0  0  0  0  0  0
   -4.8609   -0.3452    0.0232 H   0  0  0  0  0  0  0  0  0  0  0  0
   -3.9851    0.8534   -0.8450 H   0  0  0  0  0  0  0  0  0  0  0  0
   -3.9160    0.9195    0.8996 H   0  0  0  0  0  0  0  0  0  0  0  0
   -1.4109    0.1831   -0.0133 C   0  0  0  0  0  0  0  0  0  0  0  0
   -2.7206   -1.2783   -0.8081 H   0  0  0  0  0  0  0  0  0  0  0  0
   -2.6460   -1.2406    0.9618 H   0  0  0  0  0  0  0  0  0  0  0  0
   -0.1603   -0.6950    0.0392 C   0  0  0  0  0  0  0  0  0  0  0  0
   -1.3813    0.8918    0.8458 H   0  0  0  0  0  0  0  0  0  0  0  0
   -1.4164    0.8096   -0.8852 H   0  0  0  0  0  0  0  0  0  0  0  0
   -0.2086   -1.3012    0.9529 H   0  0  0  0  0  0  0  0  0  0  0  0
    0.7440   -0.1086    0.1096 H   0  0  0  0  0  0  0  0  0  0  0  0
   -0.0815   -1.4214   -0.8636 H   0  0  0  0  0  0  0  0  0  0  0  0
  1  2  1  0  0  0  0
  1  5  1  0  0  0  0
  2  8  1  0  0  0  0
  3  1  1  0  0  0  0
  4  1  1  0  0  0  0
  6  2  1  0  0  0  0
  6  9  1  0  0  0  0
  6 10  1  0  0  0  0
  7  2  1  0  0  0  0
  9 13  1  0  0  0  0
  9 12  1  0  0  0  0
 11  6  1  0  0  0  0
 14  9  1  0  0  0  0
M  END
$$$$
