14
butane_opt
C  -3.953707   0.277552   0.003597
C  -2.707827  -0.631270   0.063285
H  -4.872212  -0.298930   0.016428
H  -3.964615   0.886168  -0.894273
H  -4.051014   0.988149   0.855614
C  -1.390650   0.175629   0.011606
H  -2.664473  -1.273860  -0.747362
H  -2.745988  -1.304482   1.003106
C  -0.160369  -0.681349   0.012928
H  -1.312726   0.833968   0.865631
H  -1.392860   0.752089  -0.848501
H  -0.172156  -1.229343   0.880141
H   0.764735  -0.090717   0.119359
H  -0.066503  -1.419922  -0.904487
