butane_opt
 OpenBabel08242015413D

 14 13  0  0  0  0  0  0  0  0999 V2000
   -3.9512    0.2772    0.0135 C   0  0  0  0  0  0  0  0  0  0  0  0
   -2.7036   -0.6258    0.0486 C   0  0  0  0  0  0  0  0  0  0  0  0
   -4.8623   -0.3175   -0.0524 H   0  0  0  0  0  0  0  0  0  0  0  0
   -3.9663    0.9005   -0.8782 H   0  0  0  0  0  0  0  0  0  0  0  0
   -4.0348    0.9457    0.8468 H   0  0  0  0  0  0  0  0  0  0  0  0
   -1.3957    0.1716    0.0235 C   0  0  0  0  0  0  0  0  0  0  0  0
   -2.7013   -1.3063   -0.8010 H   0  0  0  0  0  0  0  0  0  0  0  0
   -2.7281   -1.2652    0.9500 H   0  0  0  0  0  0  0  0  0  0  0  0
   -0.1549   -0.6914    0.0187 C   0  0  0  0  0  0  0  0  0  0  0  0
   -1.3541    0.9182    0.9303 H   0  0  0  0  0  0  0  0  0  0  0  0
   -1.3598    0.7695   -0.8746 H   0  0  0  0  0  0  0  0  0  0  0  0
   -0.1320   -1.3312    0.9390 H   0  0  0  0  0  0  0  0  0  0  0  0
    0.7938   -0.0761   -0.0840 H   0  0  0  0  0  0  0  0  0  0  0  0
   -0.2129   -1.2853   -0.7868 H   0  0  0  0  0  0  0  0  0  0  0  0
  1  2  1  0  0  0  0
  1  5  1  0  0  0  0
  2  8  1  0  0  0  0
  3  1  1  0  0  0  0
  4  1  1  0  0  0  0
  6  2  1  0  0  0  0
  6 10  1  0  0  0  0
  7  2  1  0  0  0  0
  9  6  1  0  0  0  0
  9 12  1  0  0  0  0
 11  6  1  0  0  0  0
 13  9  1  0  0  0  0
 14  9  1  0  0  0  0
M  END
$$$$
