butane_opt
 OpenBabel08242015413D

 14 13  0  0  0  0  0  0  0  0999 V2000
   -3.9468    0.2554   -0.0219 C   0  0  0  0  0  0  0  0  0  0  0  0
   -2.6998   -0.6160    0.0756 C   0  0  0  0  0  0  0  0  0  0  0  0
   -4.8440   -0.3054    0.0016 H   0  0  0  0  0  0  0  0  0  0  0  0
   -3.9539    0.9338   -0.9353 H   0  0  0  0  0  0  0  0  0  0  0  0
   -4.0241    0.8891    0.8102 H   0  0  0  0  0  0  0  0  0  0  0  0
   -1.3993    0.1980    0.0603 C   0  0  0  0  0  0  0  0  0  0  0  0
   -2.7037   -1.2970   -0.7883 H   0  0  0  0  0  0  0  0  0  0  0  0
   -2.7434   -1.2351    0.9541 H   0  0  0  0  0  0  0  0  0  0  0  0
   -0.1535   -0.6919   -0.0032 C   0  0  0  0  0  0  0  0  0  0  0  0
   -1.3918    0.8948    0.9449 H   0  0  0  0  0  0  0  0  0  0  0  0
   -1.4347    0.7453   -0.7863 H   0  0  0  0  0  0  0  0  0  0  0  0
   -0.0464   -1.3743    0.9190 H   0  0  0  0  0  0  0  0  0  0  0  0
    0.7206   -0.1222   -0.1658 H   0  0  0  0  0  0  0  0  0  0  0  0
   -0.2077   -1.3434   -0.8474 H   0  0  0  0  0  0  0  0  0  0  0  0
  1  3  1  0  0  0  0
  1  2  1  0  0  0  0
  1  5  1  0  0  0  0
  2  8  1  0  0  0  0
  4  1  1  0  0  0  0
  6  2  1  0  0  0  0
  6 10  1  0  0  0  0
  7  2  1  0  0  0  0
  9  6  1  0  0  0  0
  9 12  1  0  0  0  0
 11  6  1  0  0  0  0
 13  9  1  0  0  0  0
 14  9  1  0  0  0  0
M  END
$$$$
