14
butane_opt
C  -3.929091   0.261081   0.051113
C  -2.698843  -0.610052   0.014124
H  -4.871097  -0.351817   0.082046
H  -3.951431   0.860606  -0.842103
H  -3.931932   0.985349   0.945728
C  -1.409084   0.186012  -0.036226
H  -2.760126  -1.323415  -0.848860
H  -2.672110  -1.210684   0.865012
C  -0.177789  -0.699261   0.068708
H  -1.430474   0.802149   0.777448
H  -1.320386   0.865598  -0.960329
H  -0.160549  -1.259948   0.928307
H   0.724925  -0.110454   0.147059
H  -0.072211  -1.386290  -0.827140
