butane_opt
 OpenBabel08242015413D

 14 13  0  0  0  0  0  0  0  0999 V2000
   -3.9491    0.2742    0.0407 C   0  0  0  0  0  0  0  0  0  0  0  0
   -2.7116   -0.6215    0.0041 C   0  0  0  0  0  0  0  0  0  0  0  0
   -4.8504   -0.3061   -0.0115 H   0  0  0  0  0  0  0  0  0  0  0  0
   -4.0439    0.8151   -0.8012 H   0  0  0  0  0  0  0  0  0  0  0  0
   -3.9851    1.0198    0.9503 H   0  0  0  0  0  0  0  0  0  0  0  0
   -1.3937    0.1722    0.0074 C   0  0  0  0  0  0  0  0  0  0  0  0
   -2.7472   -1.3633   -0.8951 H   0  0  0  0  0  0  0  0  0  0  0  0
   -2.6827   -1.2215    0.8711 H   0  0  0  0  0  0  0  0  0  0  0  0
   -0.1487   -0.6899    0.0571 C   0  0  0  0  0  0  0  0  0  0  0  0
   -1.3998    0.8000    0.7973 H   0  0  0  0  0  0  0  0  0  0  0  0
   -1.3525    0.8718   -0.9401 H   0  0  0  0  0  0  0  0  0  0  0  0
   -0.1037   -1.4245    1.0169 H   0  0  0  0  0  0  0  0  0  0  0  0
    0.7665   -0.0623   -0.1250 H   0  0  0  0  0  0  0  0  0  0  0  0
   -0.1875   -1.2163   -0.7196 H   0  0  0  0  0  0  0  0  0  0  0  0
  1  5  1  0  0  0  0
  2  6  1  0  0  0  0
  2  1  1  0  0  0  0
  2  8  1  0  0  0  0
  3  1  1  0  0  0  0
  4  1  1  0  0  0  0
  6  9  1  0  0  0  0
  6 10  1  0  0  0  0
  7  2  1  0  0  0  0
  9 12  1  0  0  0  0
 11  6  1  0  0  0  0
 13  9  1  0  0  0  0
 14  9  1  0  0  0  0
M  END
$$$$
