butane_opt
 OpenBabel08242015413D

 14 13  0  0  0  0  0  0  0  0999 V2000
   -3.9630    0.2783    0.0309 C   0  0  0  0  0  0  0  0  0  0  0  0
   -2.6997   -0.6265    0.0269 C   0  0  0  0  0  0  0  0  0  0  0  0
   -4.8528   -0.3029   -0.0837 H   0  0  0  0  0  0  0  0  0  0  0  0
   -3.9509    0.7773   -0.7818 H   0  0  0  0  0  0  0  0  0  0  0  0
   -4.0485    1.0541    0.9470 H   0  0  0  0  0  0  0  0  0  0  0  0
   -1.3928    0.1746   -0.0095 C   0  0  0  0  0  0  0  0  0  0  0  0
   -2.7310   -1.2476   -0.7957 H   0  0  0  0  0  0  0  0  0  0  0  0
   -2.6907   -1.3168    0.9492 H   0  0  0  0  0  0  0  0  0  0  0  0
   -0.1592   -0.6867    0.0458 C   0  0  0  0  0  0  0  0  0  0  0  0
   -1.3470    0.8029    0.8387 H   0  0  0  0  0  0  0  0  0  0  0  0
   -1.3454    0.7888   -0.9071 H   0  0  0  0  0  0  0  0  0  0  0  0
   -0.1283   -1.3010    0.9353 H   0  0  0  0  0  0  0  0  0  0  0  0
    0.7880   -0.0750   -0.0160 H   0  0  0  0  0  0  0  0  0  0  0  0
   -0.1468   -1.3187   -0.7635 H   0  0  0  0  0  0  0  0  0  0  0  0
  1  5  1  0  0  0  0
  2  1  1  0  0  0  0
  2  8  1  0  0  0  0
  3  1  1  0  0  0  0
  4  1  1  0  0  0  0
  6  2  1  0  0  0  0
  6  9  1  0  0  0  0
  6 10  1  0  0  0  0
  7  2  1  0  0  0  0
  9 12  1  0  0  0  0
 11  6  1  0  0  0  0
 13  9  1  0  0  0  0
 14  9  1  0  0  0  0
M  END
$$$$
