butane_opt
 OpenBabel08242015413D

 14 13  0  0  0  0  0  0  0  0999 V2000
   -3.9418    0.2594    0.0335 C   0  0  0  0  0  0  0  0  0  0  0  0
   -2.7087   -0.6089    0.0074 C   0  0  0  0  0  0  0  0  0  0  0  0
   -4.9087   -0.3621    0.1126 H   0  0  0  0  0  0  0  0  0  0  0  0
   -4.0036    0.8706   -0.8592 H   0  0  0  0  0  0  0  0  0  0  0  0
   -3.9483    0.9397    0.8998 H   0  0  0  0  0  0  0  0  0  0  0  0
   -1.4081    0.1974    0.0057 C   0  0  0  0  0  0  0  0  0  0  0  0
   -2.7398   -1.3581   -0.8902 H   0  0  0  0  0  0  0  0  0  0  0  0
   -2.7065   -1.2118    0.8608 H   0  0  0  0  0  0  0  0  0  0  0  0
   -0.1431   -0.7014    0.0594 C   0  0  0  0  0  0  0  0  0  0  0  0
   -1.4340    0.8458    0.8309 H   0  0  0  0  0  0  0  0  0  0  0  0
   -1.4088    0.8575   -0.8968 H   0  0  0  0  0  0  0  0  0  0  0  0
   -0.0516   -1.4003    0.9961 H   0  0  0  0  0  0  0  0  0  0  0  0
    0.7821   -0.1066   -0.0996 H   0  0  0  0  0  0  0  0  0  0  0  0
   -0.1811   -1.3024   -0.7741 H   0  0  0  0  0  0  0  0  0  0  0  0
  1  3  1  0  0  0  0
  1  5  1  0  0  0  0
  2  1  1  0  0  0  0
  2  8  1  0  0  0  0
  4  1  1  0  0  0  0
  6  2  1  0  0  0  0
  6  9  1  0  0  0  0
  6 10  1  0  0  0  0
  7  2  1  0  0  0  0
  9 12  1  0  0  0  0
 11  6  1  0  0  0  0
 13  9  1  0  0  0  0
 14  9  1  0  0  0  0
M  END
$$$$
