butane_opt
 OpenBabel08242015413D

 14 13  0  0  0  0  0  0  0  0999 V2000
   -3.9442    0.2782    0.0425 C   0  0  0  0  0  0  0  0  0  0  0  0
   -2.6914   -0.6264    0.0273 C   0  0  0  0  0  0  0  0  0  0  0  0
   -4.8907   -0.3438   -0.1200 H   0  0  0  0  0  0  0  0  0  0  0  0
   -3.9166    0.7402   -0.7687 H   0  0  0  0  0  0  0  0  0  0  0  0
   -4.0245    1.0881    1.0039 H   0  0  0  0  0  0  0  0  0  0  0  0
   -1.4014    0.1686   -0.0304 C   0  0  0  0  0  0  0  0  0  0  0  0
   -2.7216   -1.3121   -0.8113 H   0  0  0  0  0  0  0  0  0  0  0  0
   -2.6628   -1.2316    0.9194 H   0  0  0  0  0  0  0  0  0  0  0  0
   -0.1644   -0.6808    0.0541 C   0  0  0  0  0  0  0  0  0  0  0  0
   -1.4370    0.8302    0.7929 H   0  0  0  0  0  0  0  0  0  0  0  0
   -1.3850    0.8095   -0.9149 H   0  0  0  0  0  0  0  0  0  0  0  0
   -0.2095   -1.3548    0.9921 H   0  0  0  0  0  0  0  0  0  0  0  0
    0.7696   -0.0875   -0.0207 H   0  0  0  0  0  0  0  0  0  0  0  0
   -0.1289   -1.2865   -0.7426 H   0  0  0  0  0  0  0  0  0  0  0  0
  1  5  1  0  0  0  0
  2  1  1  0  0  0  0
  2  8  1  0  0  0  0
  3  1  1  0  0  0  0
  4  1  1  0  0  0  0
  6  2  1  0  0  0  0
  6  9  1  0  0  0  0
  6 10  1  0  0  0  0
  7  2  1  0  0  0  0
  9 12  1  0  0  0  0
 11  6  1  0  0  0  0
 13  9  1  0  0  0  0
 14  9  1  0  0  0  0
M  END
$$$$
