butane_opt
 OpenBabel08242015413D

 14 13  0  0  0  0  0  0  0  0999 V2000
   -3.9466    0.2709    0.0509 C   0  0  0  0  0  0  0  0  0  0  0  0
   -2.6950   -0.6291    0.0034 C   0  0  0  0  0  0  0  0  0  0  0  0
   -4.8336   -0.2933    0.0999 H   0  0  0  0  0  0  0  0  0  0  0  0
   -3.9753    0.8647   -0.8301 H   0  0  0  0  0  0  0  0  0  0  0  0
   -3.9447    0.9824    0.9473 H   0  0  0  0  0  0  0  0  0  0  0  0
   -1.4051    0.1761   -0.0274 C   0  0  0  0  0  0  0  0  0  0  0  0
   -2.7414   -1.3236   -0.8616 H   0  0  0  0  0  0  0  0  0  0  0  0
   -2.6229   -1.2417    0.8684 H   0  0  0  0  0  0  0  0  0  0  0  0
   -0.1702   -0.6821    0.0652 C   0  0  0  0  0  0  0  0  0  0  0  0
   -1.4181    0.7641    0.7793 H   0  0  0  0  0  0  0  0  0  0  0  0
   -1.3581    0.8635   -0.9613 H   0  0  0  0  0  0  0  0  0  0  0  0
   -0.1839   -1.2493    0.9467 H   0  0  0  0  0  0  0  0  0  0  0  0
    0.7351   -0.0966    0.1300 H   0  0  0  0  0  0  0  0  0  0  0  0
   -0.0852   -1.3648   -0.7835 H   0  0  0  0  0  0  0  0  0  0  0  0
  1  3  1  0  0  0  0
  1  5  1  0  0  0  0
  2  1  1  0  0  0  0
  2  8  1  0  0  0  0
  4  1  1  0  0  0  0
  6  2  1  0  0  0  0
  6  9  1  0  0  0  0
  6 10  1  0  0  0  0
  7  2  1  0  0  0  0
  9 13  1  0  0  0  0
  9 12  1  0  0  0  0
 11  6  1  0  0  0  0
 14  9  1  0  0  0  0
M  END
$$$$
