butane_opt
 OpenBabel08242015413D

 14 13  0  0  0  0  0  0  0  0999 V2000
   -3.9389    0.2692    0.0389 C   0  0  0  0  0  0  0  0  0  0  0  0
   -2.6913   -0.6152    0.0286 C   0  0  0  0  0  0  0  0  0  0  0  0
   -4.8574   -0.3328   -0.0826 H   0  0  0  0  0  0  0  0  0  0  0  0
   -3.9386    0.7730   -0.7693 H   0  0  0  0  0  0  0  0  0  0  0  0
   -4.0269    1.0564    0.9897 H   0  0  0  0  0  0  0  0  0  0  0  0
   -1.4013    0.1786   -0.0231 C   0  0  0  0  0  0  0  0  0  0  0  0
   -2.6852   -1.3365   -0.8394 H   0  0  0  0  0  0  0  0  0  0  0  0
   -2.7052   -1.2404    0.8935 H   0  0  0  0  0  0  0  0  0  0  0  0
   -0.1664   -0.6905    0.0593 C   0  0  0  0  0  0  0  0  0  0  0  0
   -1.4439    0.7786    0.7710 H   0  0  0  0  0  0  0  0  0  0  0  0
   -1.3876    0.8399   -0.9299 H   0  0  0  0  0  0  0  0  0  0  0  0
   -0.1392   -1.3407    0.9689 H   0  0  0  0  0  0  0  0  0  0  0  0
    0.7678   -0.0484   -0.0047 H   0  0  0  0  0  0  0  0  0  0  0  0
   -0.2286   -1.3214   -0.7808 H   0  0  0  0  0  0  0  0  0  0  0  0
  1  5  1  0  0  0  0
  2  1  1  0  0  0  0
  2  8  1  0  0  0  0
  3  1  1  0  0  0  0
  4  1  1  0  0  0  0
  6  2  1  0  0  0  0
  6  9  1  0  0  0  0
  6 10  1  0  0  0  0
  7  2  1  0  0  0  0
  9 12  1  0  0  0  0
 11  6  1  0  0  0  0
 13  9  1  0  0  0  0
 14  9  1  0  0  0  0
M  END
$$$$
