14
butane_opt
C  -3.929266   0.256921  -0.003173
C  -2.697585  -0.611914   0.054038
H  -4.901568  -0.366477   0.127832
H  -4.001317   0.954064  -0.966922
H  -3.835761   0.864750   0.813245
C  -1.414040   0.194192   0.028569
H  -2.675448  -1.271797  -0.781550
H  -2.730698  -1.273954   0.961375
C  -0.164726  -0.695089   0.013754
H  -1.432475   0.942788   0.931736
H  -1.407628   0.813590  -0.824998
H  -0.146239  -1.291024   0.889761
H   0.706679  -0.144023   0.045062
H  -0.126843  -1.439476  -0.892676
