14
butane_opt
C  -3.917716   0.257015   0.006335
C  -2.708214  -0.607652   0.062336
H  -4.858213  -0.363463   0.037227
H  -3.938779   0.943715  -0.951486
H  -3.996849   0.900665   0.833647
C  -1.409389   0.191807   0.018684
H  -2.779671  -1.280391  -0.761208
H  -2.703297  -1.261490   0.970146
C  -0.163307  -0.701299   0.018214
H  -1.416353   0.891587   0.873428
H  -1.420164   0.821820  -0.874407
H  -0.177793  -1.225270   0.836524
H   0.729351  -0.107242   0.101289
H  -0.072893  -1.475676  -0.914540
