14
butane_opt
C  -3.950606   0.257891   0.009560
C  -2.700474  -0.619128   0.060892
H  -4.891907  -0.358237   0.030727
H  -3.875328   0.916249  -0.930954
H  -4.012516   0.910896   0.867987
C  -1.405857   0.205515   0.010696
H  -2.746522  -1.266317  -0.789866
H  -2.730474  -1.246726   0.964322
C  -0.151770  -0.702402   0.021455
H  -1.354325   0.849106   0.860219
H  -1.425932   0.842612  -0.873101
H  -0.125561  -1.210758   0.866030
H   0.710869  -0.148212   0.114845
H  -0.062912  -1.473862  -0.909703
