butane_opt
 OpenBabel08242015413D

 14 13  0  0  0  0  0  0  0  0999 V2000
   -3.9592    0.2674    0.0394 C   0  0  0  0  0  0  0  0  0  0  0  0
   -2.7013   -0.6293    0.0116 C   0  0  0  0  0  0  0  0  0  0  0  0
   -4.8552   -0.3097    0.1776 H   0  0  0  0  0  0  0  0  0  0  0  0
   -4.0374    1.0020   -0.9154 H   0  0  0  0  0  0  0  0  0  0  0  0
   -3.9440    0.8894    0.8781 H   0  0  0  0  0  0  0  0  0  0  0  0
   -1.3964    0.1773   -0.0062 C   0  0  0  0  0  0  0  0  0  0  0  0
   -2.7460   -1.3869   -0.8917 H   0  0  0  0  0  0  0  0  0  0  0  0
   -2.6645   -1.1850    0.8480 H   0  0  0  0  0  0  0  0  0  0  0  0
   -0.1528   -0.6790    0.0534 C   0  0  0  0  0  0  0  0  0  0  0  0
   -1.4254    0.8784    0.8617 H   0  0  0  0  0  0  0  0  0  0  0  0
   -1.3525    0.8024   -0.9322 H   0  0  0  0  0  0  0  0  0  0  0  0
   -0.1068   -1.3434    0.9704 H   0  0  0  0  0  0  0  0  0  0  0  0
    0.7386   -0.1037    0.0460 H   0  0  0  0  0  0  0  0  0  0  0  0
   -0.1189   -1.3445   -0.7854 H   0  0  0  0  0  0  0  0  0  0  0  0
  1  3  1  0  0  0  0
  1  5  1  0  0  0  0
  2  1  1  0  0  0  0
  2  8  1  0  0  0  0
  4  1  1  0  0  0  0
  6  2  1  0  0  0  0
  6  9  1  0  0  0  0
  6 10  1  0  0  0  0
  7  2  1  0  0  0  0
  9 12  1  0  0  0  0
 11  6  1  0  0  0  0
 13  9  1  0  0  0  0
 14  9  1  0  0  0  0
M  END
$$$$
