14
butane_opt
C  -3.941046   0.274063   0.039235
C  -2.706568  -0.623888   0.002675
H  -4.850005  -0.309592   0.146959
H  -4.029197   0.949871  -0.857576
H  -3.885963   0.931642   0.885132
C  -1.399510   0.169345  -0.006070
H  -2.666410  -1.288125  -0.836646
H  -2.721638  -1.266407   0.879547
C  -0.166645  -0.692078   0.051655
H  -1.404389   0.841636   0.846671
H  -1.367784   0.783507  -0.885994
H  -0.213161  -1.267121   0.944955
H   0.787114  -0.055513   0.030060
H  -0.113135  -1.311514  -0.766868
