14
butane_opt
C  -3.938487   0.268725   0.038799
C  -2.695067  -0.621818   0.019227
H  -4.809928  -0.299176  -0.058427
H  -3.935897   0.782593  -0.800414
H  -3.974926   1.025897   0.958245
C  -1.410602   0.177123  -0.013175
H  -2.696226  -1.296421  -0.808511
H  -2.668648  -1.246497   0.915294
C  -0.175263  -0.680665   0.052643
H  -1.442544   0.814670   0.831104
H  -1.351057   0.805769  -0.924191
H  -0.139990  -1.369552   0.991934
H   0.749896  -0.066210  -0.053584
H  -0.135925  -1.331929  -0.776519
