butane_opt
 OpenBabel08242015413D

 14 13  0  0  0  0  0  0  0  0999 V2000
   -3.9323    0.2601    0.0029 C   0  0  0  0  0  0  0  0  0  0  0  0
   -2.7042   -0.6099    0.0491 C   0  0  0  0  0  0  0  0  0  0  0  0
   -4.8658   -0.3641    0.0305 H   0  0  0  0  0  0  0  0  0  0  0  0
   -3.9187    0.8816   -0.9211 H   0  0  0  0  0  0  0  0  0  0  0  0
   -3.9336    0.9033    0.8272 H   0  0  0  0  0  0  0  0  0  0  0  0
   -1.4114    0.2036    0.0404 C   0  0  0  0  0  0  0  0  0  0  0  0
   -2.7049   -1.3114   -0.8324 H   0  0  0  0  0  0  0  0  0  0  0  0
   -2.7560   -1.2078    0.9235 H   0  0  0  0  0  0  0  0  0  0  0  0
   -0.1670   -0.7123    0.0235 C   0  0  0  0  0  0  0  0  0  0  0  0
   -1.3745    0.8795    0.9149 H   0  0  0  0  0  0  0  0  0  0  0  0
   -1.3885    0.8065   -0.8391 H   0  0  0  0  0  0  0  0  0  0  0  0
   -0.0356   -1.3424    0.9332 H   0  0  0  0  0  0  0  0  0  0  0  0
    0.7231   -0.1257   -0.1767 H   0  0  0  0  0  0  0  0  0  0  0  0
   -0.1891   -1.2897   -0.8101 H   0  0  0  0  0  0  0  0  0  0  0  0
  1  3  1  0  0  0  0
  1  2  1  0  0  0  0
  1  5  1  0  0  0  0
  2  8  1  0  0  0  0
  4  1  1  0  0  0  0
  6  2  1  0  0  0  0
  6 10  1  0  0  0  0
  7  2  1  0  0  0  0
  9  6  1  0  0  0  0
  9 12  1  0  0  0  0
 11  6  1  0  0  0  0
 13  9  1  0  0  0  0
 14  9  1  0  0  0  0
M  END
$$$$
