butane_opt
 OpenBabel08242015413D

 14 13  0  0  0  0  0  0  0  0999 V2000
   -3.9416    0.2617    0.0083 C   0  0  0  0  0  0  0  0  0  0  0  0
   -2.7094   -0.6118    0.0681 C   0  0  0  0  0  0  0  0  0  0  0  0
   -4.8728   -0.3486   -0.1128 H   0  0  0  0  0  0  0  0  0  0  0  0
   -3.8963    0.8243   -0.8782 H   0  0  0  0  0  0  0  0  0  0  0  0
   -4.0670    0.9991    0.8825 H   0  0  0  0  0  0  0  0  0  0  0  0
   -1.4083    0.1944    0.0085 C   0  0  0  0  0  0  0  0  0  0  0  0
   -2.7067   -1.2599   -0.7446 H   0  0  0  0  0  0  0  0  0  0  0  0
   -2.7333   -1.3056    0.9854 H   0  0  0  0  0  0  0  0  0  0  0  0
   -0.1463   -0.6962    0.0150 C   0  0  0  0  0  0  0  0  0  0  0  0
   -1.3907    0.8660    0.8744 H   0  0  0  0  0  0  0  0  0  0  0  0
   -1.4320    0.7813   -0.8291 H   0  0  0  0  0  0  0  0  0  0  0  0
   -0.0949   -1.3099    0.8869 H   0  0  0  0  0  0  0  0  0  0  0  0
    0.7841   -0.0935    0.0397 H   0  0  0  0  0  0  0  0  0  0  0  0
   -0.1461   -1.3995   -0.8567 H   0  0  0  0  0  0  0  0  0  0  0  0
  1  2  1  0  0  0  0
  1  5  1  0  0  0  0
  2  8  1  0  0  0  0
  3  1  1  0  0  0  0
  4  1  1  0  0  0  0
  6  9  1  0  0  0  0
  6  2  1  0  0  0  0
  6 10  1  0  0  0  0
  7  2  1  0  0  0  0
  9 13  1  0  0  0  0
  9 12  1  0  0  0  0
 11  6  1  0  0  0  0
 14  9  1  0  0  0  0
M  END
$$$$
