butane_opt
 OpenBabel08242015413D

 14 13  0  0  0  0  0  0  0  0999 V2000
   -3.9333    0.2521    0.0375 C   0  0  0  0  0  0  0  0  0  0  0  0
   -2.7050   -0.6003    0.0023 C   0  0  0  0  0  0  0  0  0  0  0  0
   -4.8092   -0.3135    0.1420 H   0  0  0  0  0  0  0  0  0  0  0  0
   -4.0357    0.9150   -0.8674 H   0  0  0  0  0  0  0  0  0  0  0  0
   -3.8472    0.8619    0.8859 H   0  0  0  0  0  0  0  0  0  0  0  0
   -1.4047    0.1948   -0.0003 C   0  0  0  0  0  0  0  0  0  0  0  0
   -2.6914   -1.3003   -0.8576 H   0  0  0  0  0  0  0  0  0  0  0  0
   -2.7474   -1.2222    0.9031 H   0  0  0  0  0  0  0  0  0  0  0  0
   -0.1702   -0.7032    0.0513 C   0  0  0  0  0  0  0  0  0  0  0  0
   -1.4132    0.8714    0.8192 H   0  0  0  0  0  0  0  0  0  0  0  0
   -1.3789    0.8215   -0.8805 H   0  0  0  0  0  0  0  0  0  0  0  0
   -0.1578   -1.3347    0.9643 H   0  0  0  0  0  0  0  0  0  0  0  0
    0.7415   -0.1414    0.0273 H   0  0  0  0  0  0  0  0  0  0  0  0
   -0.1215   -1.3468   -0.7896 H   0  0  0  0  0  0  0  0  0  0  0  0
  1  3  1  0  0  0  0
  1  5  1  0  0  0  0
  2  1  1  0  0  0  0
  2  8  1  0  0  0  0
  4  1  1  0  0  0  0
  6  2  1  0  0  0  0
  6  9  1  0  0  0  0
  6 10  1  0  0  0  0
  7  2  1  0  0  0  0
  9 12  1  0  0  0  0
 11  6  1  0  0  0  0
 13  9  1  0  0  0  0
 14  9  1  0  0  0  0
M  END
$$$$
