14
butane_opt
C  -3.923782   0.256662   0.010058
C  -2.710838  -0.603460   0.054314
H  -4.868319  -0.352520  -0.052650
H  -3.903307   0.800548  -0.851567
H  -3.972134   0.985886   0.894706
C  -1.418622   0.200628   0.008321
H  -2.726995  -1.254977  -0.751129
H  -2.737419  -1.277115   0.969303
C  -0.159772  -0.706836   0.022518
H  -1.324929   0.883330   0.868889
H  -1.440273   0.816620  -0.881562
H  -0.169458  -1.330511   0.923322
H   0.759131  -0.096548   0.035024
H  -0.083980  -1.414593  -0.850808
