butane_opt
 OpenBabel08242015413D

 14 13  0  0  0  0  0  0  0  0999 V2000
   -3.9527    0.2573    0.0422 C   0  0  0  0  0  0  0  0  0  0  0  0
   -2.7099   -0.6103    0.0146 C   0  0  0  0  0  0  0  0  0  0  0  0
   -4.8204   -0.3180    0.0940 H   0  0  0  0  0  0  0  0  0  0  0  0
   -3.9781    0.8963   -0.8782 H   0  0  0  0  0  0  0  0  0  0  0  0
   -3.9536    0.9152    0.8616 H   0  0  0  0  0  0  0  0  0  0  0  0
   -1.3970    0.1963   -0.0059 C   0  0  0  0  0  0  0  0  0  0  0  0
   -2.7702   -1.3591   -0.8691 H   0  0  0  0  0  0  0  0  0  0  0  0
   -2.6515   -1.1981    0.8702 H   0  0  0  0  0  0  0  0  0  0  0  0
   -0.1554   -0.6976    0.0509 C   0  0  0  0  0  0  0  0  0  0  0  0
   -1.3799    0.8374    0.8177 H   0  0  0  0  0  0  0  0  0  0  0  0
   -1.3798    0.8283   -0.9029 H   0  0  0  0  0  0  0  0  0  0  0  0
   -0.1179   -1.3501    0.9773 H   0  0  0  0  0  0  0  0  0  0  0  0
    0.7143   -0.1312    0.0452 H   0  0  0  0  0  0  0  0  0  0  0  0
   -0.1066   -1.3376   -0.7949 H   0  0  0  0  0  0  0  0  0  0  0  0
  1  3  1  0  0  0  0
  1  5  1  0  0  0  0
  2  1  1  0  0  0  0
  2  8  1  0  0  0  0
  4  1  1  0  0  0  0
  6  2  1  0  0  0  0
  6  9  1  0  0  0  0
  6 10  1  0  0  0  0
  7  2  1  0  0  0  0
  9 12  1  0  0  0  0
 11  6  1  0  0  0  0
 13  9  1  0  0  0  0
 14  9  1  0  0  0  0
M  END
$$$$
