butane_opt
 OpenBabel08242015413D

 14 13  0  0  0  0  0  0  0  0999 V2000
   -3.9377    0.2731   -0.0145 C   0  0  0  0  0  0  0  0  0  0  0  0
   -2.7016   -0.6310    0.0626 C   0  0  0  0  0  0  0  0  0  0  0  0
   -4.7991   -0.2939   -0.0039 H   0  0  0  0  0  0  0  0  0  0  0  0
   -3.9343    0.8711   -0.8946 H   0  0  0  0  0  0  0  0  0  0  0  0
   -3.9665    0.9313    0.8489 H   0  0  0  0  0  0  0  0  0  0  0  0
   -1.4122    0.1871    0.0421 C   0  0  0  0  0  0  0  0  0  0  0  0
   -2.6911   -1.2806   -0.7813 H   0  0  0  0  0  0  0  0  0  0  0  0
   -2.7316   -1.2540    0.9643 H   0  0  0  0  0  0  0  0  0  0  0  0
   -0.1674   -0.6932    0.0019 C   0  0  0  0  0  0  0  0  0  0  0  0
   -1.3019    0.9071    0.9569 H   0  0  0  0  0  0  0  0  0  0  0  0
   -1.4361    0.7555   -0.7880 H   0  0  0  0  0  0  0  0  0  0  0  0
   -0.0795   -1.3860    0.9539 H   0  0  0  0  0  0  0  0  0  0  0  0
    0.7699   -0.0778   -0.0976 H   0  0  0  0  0  0  0  0  0  0  0  0
   -0.2357   -1.2666   -0.8092 H   0  0  0  0  0  0  0  0  0  0  0  0
  1  3  1  0  0  0  0
  1  2  1  0  0  0  0
  1  5  1  0  0  0  0
  2  8  1  0  0  0  0
  4  1  1  0  0  0  0
  6  2  1  0  0  0  0
  6 10  1  0  0  0  0
  7  2  1  0  0  0  0
  9  6  1  0  0  0  0
  9 12  1  0  0  0  0
 11  6  1  0  0  0  0
 13  9  1  0  0  0  0
 14  9  1  0  0  0  0
M  END
$$$$
