butane_opt
 OpenBabel08242015413D

 14 13  0  0  0  0  0  0  0  0999 V2000
   -3.9440    0.2541    0.0551 C   0  0  0  0  0  0  0  0  0  0  0  0
   -2.7032   -0.6020    0.0088 C   0  0  0  0  0  0  0  0  0  0  0  0
   -4.8732   -0.3479    0.0065 H   0  0  0  0  0  0  0  0  0  0  0  0
   -4.0321    0.8053   -0.7785 H   0  0  0  0  0  0  0  0  0  0  0  0
   -3.9378    0.9980    0.9393 H   0  0  0  0  0  0  0  0  0  0  0  0
   -1.4142    0.1908   -0.0370 C   0  0  0  0  0  0  0  0  0  0  0  0
   -2.7372   -1.2625   -0.8516 H   0  0  0  0  0  0  0  0  0  0  0  0
   -2.7260   -1.2524    0.9235 H   0  0  0  0  0  0  0  0  0  0  0  0
   -0.1462   -0.7006    0.0629 C   0  0  0  0  0  0  0  0  0  0  0  0
   -1.4213    0.8431    0.7821 H   0  0  0  0  0  0  0  0  0  0  0  0
   -1.3543    0.8402   -0.9687 H   0  0  0  0  0  0  0  0  0  0  0  0
   -0.1921   -1.3211    0.9804 H   0  0  0  0  0  0  0  0  0  0  0  0
    0.7918   -0.0809    0.1373 H   0  0  0  0  0  0  0  0  0  0  0  0
   -0.0470   -1.4084   -0.8046 H   0  0  0  0  0  0  0  0  0  0  0  0
  1  5  1  0  0  0  0
  2  1  1  0  0  0  0
  2  8  1  0  0  0  0
  3  1  1  0  0  0  0
  4  1  1  0  0  0  0
  6  2  1  0  0  0  0
  6  9  1  0  0  0  0
  6 10  1  0  0  0  0
  7  2  1  0  0  0  0
  9 13  1  0  0  0  0
  9 12  1  0  0  0  0
 11  6  1  0  0  0  0
 14  9  1  0  0  0  0
M  END
$$$$
