butane_opt
 OpenBabel08242015413D

 14 13  0  0  0  0  0  0  0  0999 V2000
   -3.9463    0.2463    0.0454 C   0  0  0  0  0  0  0  0  0  0  0  0
   -2.7072   -0.6084    0.0219 C   0  0  0  0  0  0  0  0  0  0  0  0
   -4.8505   -0.3175    0.0778 H   0  0  0  0  0  0  0  0  0  0  0  0
   -3.9912    0.8522   -0.8628 H   0  0  0  0  0  0  0  0  0  0  0  0
   -3.9554    0.9458    0.9056 H   0  0  0  0  0  0  0  0  0  0  0  0
   -1.4092    0.2081   -0.0260 C   0  0  0  0  0  0  0  0  0  0  0  0
   -2.7504   -1.3342   -0.8705 H   0  0  0  0  0  0  0  0  0  0  0  0
   -2.7311   -1.1702    0.8846 H   0  0  0  0  0  0  0  0  0  0  0  0
   -0.1445   -0.7085    0.0560 C   0  0  0  0  0  0  0  0  0  0  0  0
   -1.4083    0.8656    0.8068 H   0  0  0  0  0  0  0  0  0  0  0  0
   -1.3973    0.8409   -0.9245 H   0  0  0  0  0  0  0  0  0  0  0  0
   -0.1373   -1.3111    0.9351 H   0  0  0  0  0  0  0  0  0  0  0  0
    0.7246   -0.1410    0.0908 H   0  0  0  0  0  0  0  0  0  0  0  0
   -0.0339   -1.3563   -0.7653 H   0  0  0  0  0  0  0  0  0  0  0  0
  1  3  1  0  0  0  0
  1  5  1  0  0  0  0
  2  1  1  0  0  0  0
  2  8  1  0  0  0  0
  4  1  1  0  0  0  0
  6  2  1  0  0  0  0
  6  9  1  0  0  0  0
  6 10  1  0  0  0  0
  7  2  1  0  0  0  0
  9 13  1  0  0  0  0
  9 12  1  0  0  0  0
 11  6  1  0  0  0  0
 14  9  1  0  0  0  0
M  END
$$$$
