14
butane_opt
C  -3.941738   0.250573   0.044663
C  -2.694607  -0.593620   0.018371
H  -4.865629  -0.332172   0.067153
H  -3.971499   0.837943  -0.830064
H  -3.899812   0.957036   0.936181
C  -1.404693   0.183854  -0.032595
H  -2.790452  -1.304261  -0.867924
H  -2.662031  -1.230826   0.914188
C  -0.162718  -0.700188   0.067214
H  -1.468505   0.808479   0.763242
H  -1.398137   0.885674  -0.948018
H  -0.182330  -1.253262   0.911264
H   0.753099  -0.104758   0.167879
H  -0.090785  -1.427747  -0.851895
