butane_opt
 OpenBabel08242015413D

 14 13  0  0  0  0  0  0  0  0999 V2000
   -3.9377    0.2765    0.0315 C   0  0  0  0  0  0  0  0  0  0  0  0
   -2.7013   -0.6162    0.0239 C   0  0  0  0  0  0  0  0  0  0  0  0
   -4.8527   -0.3288    0.0955 H   0  0  0  0  0  0  0  0  0  0  0  0
   -3.9766    0.8927   -0.9055 H   0  0  0  0  0  0  0  0  0  0  0  0
   -3.9390    0.8842    0.8556 H   0  0  0  0  0  0  0  0  0  0  0  0
   -1.4071    0.1701   -0.0015 C   0  0  0  0  0  0  0  0  0  0  0  0
   -2.7258   -1.3141   -0.8467 H   0  0  0  0  0  0  0  0  0  0  0  0
   -2.6625   -1.2169    0.9137 H   0  0  0  0  0  0  0  0  0  0  0  0
   -0.1743   -0.6896    0.0437 C   0  0  0  0  0  0  0  0  0  0  0  0
   -1.3896    0.8821    0.8848 H   0  0  0  0  0  0  0  0  0  0  0  0
   -1.3233    0.7602   -0.8770 H   0  0  0  0  0  0  0  0  0  0  0  0
   -0.1597   -1.3133    0.9539 H   0  0  0  0  0  0  0  0  0  0  0  0
    0.7614   -0.0640   -0.0158 H   0  0  0  0  0  0  0  0  0  0  0  0
   -0.1171   -1.3379   -0.8000 H   0  0  0  0  0  0  0  0  0  0  0  0
  1  3  1  0  0  0  0
  1  5  1  0  0  0  0
  2  1  1  0  0  0  0
  2  8  1  0  0  0  0
  4  1  1  0  0  0  0
  6  2  1  0  0  0  0
  6  9  1  0  0  0  0
  6 10  1  0  0  0  0
  7  2  1  0  0  0  0
  9 12  1  0  0  0  0
 11  6  1  0  0  0  0
 13  9  1  0  0  0  0
 14  9  1  0  0  0  0
M  END
$$$$
