butane_opt
 OpenBabel08242015413D

 14 13  0  0  0  0  0  0  0  0999 V2000
   -3.9498    0.2793    0.0352 C   0  0  0  0  0  0  0  0  0  0  0  0
   -2.6897   -0.6301   -0.0037 C   0  0  0  0  0  0  0  0  0  0  0  0
   -4.8742   -0.3145    0.1488 H   0  0  0  0  0  0  0  0  0  0  0  0
   -4.0137    0.8763   -0.8473 H   0  0  0  0  0  0  0  0  0  0  0  0
   -3.9038    0.9398    0.9272 H   0  0  0  0  0  0  0  0  0  0  0  0
   -1.4081    0.1670    0.0012 C   0  0  0  0  0  0  0  0  0  0  0  0
   -2.7133   -1.3411   -0.8610 H   0  0  0  0  0  0  0  0  0  0  0  0
   -2.6776   -1.2340    0.8877 H   0  0  0  0  0  0  0  0  0  0  0  0
   -0.1621   -0.6821    0.0541 C   0  0  0  0  0  0  0  0  0  0  0  0
   -1.3807    0.8516    0.8452 H   0  0  0  0  0  0  0  0  0  0  0  0
   -1.3525    0.8551   -0.9205 H   0  0  0  0  0  0  0  0  0  0  0  0
   -0.1684   -1.3560    1.0033 H   0  0  0  0  0  0  0  0  0  0  0  0
    0.7433   -0.0830   -0.0139 H   0  0  0  0  0  0  0  0  0  0  0  0
   -0.1691   -1.2751   -0.7630 H   0  0  0  0  0  0  0  0  0  0  0  0
  1  3  1  0  0  0  0
  1  5  1  0  0  0  0
  2  6  1  0  0  0  0
  2  1  1  0  0  0  0
  2  8  1  0  0  0  0
  4  1  1  0  0  0  0
  6  9  1  0  0  0  0
  6 10  1  0  0  0  0
  7  2  1  0  0  0  0
  9 12  1  0  0  0  0
 11  6  1  0  0  0  0
 13  9  1  0  0  0  0
 14  9  1  0  0  0  0
M  END
$$$$
