14
butane_opt
C  -3.936657   0.246799   0.033924
C  -2.695799  -0.594515   0.031063
H  -4.856160  -0.330613  -0.057521
H  -3.903480   0.764140  -0.798014
H  -3.980706   1.029070   0.966584
C  -1.419291   0.185951  -0.013427
H  -2.774862  -1.300114  -0.855177
H  -2.654532  -1.182233   0.881172
C  -0.160064  -0.705013   0.051134
H  -1.405741   0.848567   0.840379
H  -1.401927   0.852982  -0.961602
H  -0.145155  -1.364061   1.000495
H   0.769932  -0.092220  -0.053110
H  -0.127572  -1.298486  -0.743570
