butane_opt
 OpenBabel08242015413D

 14 13  0  0  0  0  0  0  0  0999 V2000
   -3.9427    0.2746    0.0498 C   0  0  0  0  0  0  0  0  0  0  0  0
   -2.6801   -0.6343    0.0068 C   0  0  0  0  0  0  0  0  0  0  0  0
   -4.8321   -0.2648    0.1103 H   0  0  0  0  0  0  0  0  0  0  0  0
   -4.0095    0.8551   -0.8431 H   0  0  0  0  0  0  0  0  0  0  0  0
   -3.9595    0.9471    0.9010 H   0  0  0  0  0  0  0  0  0  0  0  0
   -1.4041    0.1786   -0.0304 C   0  0  0  0  0  0  0  0  0  0  0  0
   -2.7437   -1.3214   -0.8584 H   0  0  0  0  0  0  0  0  0  0  0  0
   -2.6888   -1.2710    0.9243 H   0  0  0  0  0  0  0  0  0  0  0  0
   -0.1769   -0.6854    0.0572 C   0  0  0  0  0  0  0  0  0  0  0  0
   -1.3866    0.8596    0.8287 H   0  0  0  0  0  0  0  0  0  0  0  0
   -1.4165    0.8228   -0.9371 H   0  0  0  0  0  0  0  0  0  0  0  0
   -0.2468   -1.2814    0.9583 H   0  0  0  0  0  0  0  0  0  0  0  0
    0.7702   -0.0438    0.1582 H   0  0  0  0  0  0  0  0  0  0  0  0
   -0.0739   -1.3688   -0.7989 H   0  0  0  0  0  0  0  0  0  0  0  0
  1  3  1  0  0  0  0
  1  5  1  0  0  0  0
  2  1  1  0  0  0  0
  2  8  1  0  0  0  0
  4  1  1  0  0  0  0
  6  2  1  0  0  0  0
  6  9  1  0  0  0  0
  6 10  1  0  0  0  0
  7  2  1  0  0  0  0
  9 13  1  0  0  0  0
  9 12  1  0  0  0  0
 11  6  1  0  0  0  0
 14  9  1  0  0  0  0
M  END
$$$$
