14
butane_opt
C  -3.950755   0.266257  -0.015697
C  -2.705934  -0.625860   0.058547
H  -4.811730  -0.273204   0.022853
H  -4.010500   0.925756  -0.927365
H  -3.993495   0.936497   0.860872
C  -1.392740   0.186579   0.051859
H  -2.688758  -1.293353  -0.783705
H  -2.742395  -1.282485   0.972523
C  -0.163163  -0.692380   0.007126
H  -1.323116   0.881672   0.926613
H  -1.418411   0.772493  -0.827996
H  -0.036154  -1.356074   0.932113
H   0.773454  -0.052726  -0.095609
H  -0.228350  -1.332301  -0.856061
