14
butane_opt
C  -3.940838   0.275702   0.003930
C  -2.696359  -0.628388   0.047261
H  -4.827873  -0.329705  -0.024036
H  -3.904231   0.878783  -0.900741
H  -3.970184   0.956830   0.870067
C  -1.399150   0.176718   0.033536
H  -2.715905  -1.297900  -0.809302
H  -2.707611  -1.251435   0.938796
C  -0.176509  -0.686566   0.027446
H  -1.369605   0.885393   0.929370
H  -1.422776   0.804265  -0.848099
H  -0.081446  -1.371524   0.951621
H   0.748739  -0.088884  -0.172558
H  -0.229485  -1.299864  -0.837404
