butane_opt
 OpenBabel08242015413D

 14 13  0  0  0  0  0  0  0  0999 V2000
   -3.9348    0.2523    0.0405 C   0  0  0  0  0  0  0  0  0  0  0  0
   -2.6946   -0.5990    0.0082 C   0  0  0  0  0  0  0  0  0  0  0  0
   -4.8559   -0.3381    0.0571 H   0  0  0  0  0  0  0  0  0  0  0  0
   -3.9305    0.7850   -0.8265 H   0  0  0  0  0  0  0  0  0  0  0  0
   -3.9109    0.9938    0.9536 H   0  0  0  0  0  0  0  0  0  0  0  0
   -1.4185    0.1867   -0.0110 C   0  0  0  0  0  0  0  0  0  0  0  0
   -2.7864   -1.3150   -0.8850 H   0  0  0  0  0  0  0  0  0  0  0  0
   -2.6933   -1.1943    0.8636 H   0  0  0  0  0  0  0  0  0  0  0  0
   -0.1578   -0.7028    0.0637 C   0  0  0  0  0  0  0  0  0  0  0  0
   -1.4439    0.8344    0.8288 H   0  0  0  0  0  0  0  0  0  0  0  0
   -1.3971    0.8757   -0.9514 H   0  0  0  0  0  0  0  0  0  0  0  0
   -0.0979   -1.3731    0.9965 H   0  0  0  0  0  0  0  0  0  0  0  0
    0.7211   -0.1150   -0.0509 H   0  0  0  0  0  0  0  0  0  0  0  0
   -0.1616   -1.2727   -0.7474 H   0  0  0  0  0  0  0  0  0  0  0  0
  1  3  1  0  0  0  0
  1  5  1  0  0  0  0
  2  1  1  0  0  0  0
  2  8  1  0  0  0  0
  4  1  1  0  0  0  0
  6  2  1  0  0  0  0
  6  9  1  0  0  0  0
  6 10  1  0  0  0  0
  7  2  1  0  0  0  0
  9 12  1  0  0  0  0
 11  6  1  0  0  0  0
 13  9  1  0  0  0  0
 14  9  1  0  0  0  0
M  END
$$$$
