14
butane_opt
C  -3.943518   0.255619   0.043442
C  -2.698762  -0.614750   0.028832
H  -4.840930  -0.334663   0.007075
H  -3.968013   0.833208  -0.825351
H  -3.977565   0.965967   0.930822
C  -1.410666   0.202303  -0.025006
H  -2.770237  -1.302651  -0.837884
H  -2.707171  -1.235791   0.874316
C  -0.156875  -0.707503   0.050924
H  -1.363519   0.857333   0.814173
H  -1.414563   0.904132  -0.972983
H  -0.184173  -1.299060   0.918250
H   0.759194  -0.098878   0.165850
H  -0.038170  -1.391837  -0.804277
