butane_opt
 OpenBabel08242015413D

 14 13  0  0  0  0  0  0  0  0999 V2000
   -3.9321    0.2600    0.0233 C   0  0  0  0  0  0  0  0  0  0  0  0
   -2.7048   -0.6042    0.0554 C   0  0  0  0  0  0  0  0  0  0  0  0
   -4.8627   -0.3714   -0.0827 H   0  0  0  0  0  0  0  0  0  0  0  0
   -3.8432    0.7889   -0.8429 H   0  0  0  0  0  0  0  0  0  0  0  0
   -4.0334    1.0171    0.9240 H   0  0  0  0  0  0  0  0  0  0  0  0
   -1.4119    0.1843   -0.0036 C   0  0  0  0  0  0  0  0  0  0  0  0
   -2.6979   -1.2973   -0.8230 H   0  0  0  0  0  0  0  0  0  0  0  0
   -2.7027   -1.2112    0.9110 H   0  0  0  0  0  0  0  0  0  0  0  0
   -0.1723   -0.7000    0.0369 C   0  0  0  0  0  0  0  0  0  0  0  0
   -1.3764    0.8700    0.8674 H   0  0  0  0  0  0  0  0  0  0  0  0
   -1.3890    0.8394   -0.9389 H   0  0  0  0  0  0  0  0  0  0  0  0
   -0.1050   -1.3388    0.9451 H   0  0  0  0  0  0  0  0  0  0  0  0
    0.7659   -0.1042   -0.0285 H   0  0  0  0  0  0  0  0  0  0  0  0
   -0.1278   -1.3488   -0.8181 H   0  0  0  0  0  0  0  0  0  0  0  0
  1  2  1  0  0  0  0
  1  5  1  0  0  0  0
  2  8  1  0  0  0  0
  3  1  1  0  0  0  0
  4  1  1  0  0  0  0
  6  9  1  0  0  0  0
  6  2  1  0  0  0  0
  6 10  1  0  0  0  0
  7  2  1  0  0  0  0
  9 12  1  0  0  0  0
 11  6  1  0  0  0  0
 13  9  1  0  0  0  0
 14  9  1  0  0  0  0
M  END
$$$$
