14
butane_opt
C  -3.933258   0.273600   0.002882
C  -2.698589  -0.618668   0.063170
H  -4.878504  -0.364524   0.035138
H  -3.959159   0.931946  -0.916956
H  -3.962204   0.877367   0.838345
C  -1.401969   0.179226   0.005596
H  -2.704545  -1.252990  -0.727473
H  -2.665792  -1.291793   0.992951
C  -0.174504  -0.693963   0.021792
H  -1.367313   0.888412   0.881283
H  -1.405090   0.776015  -0.858602
H  -0.199846  -1.136612   0.817940
H   0.739636  -0.115705   0.153358
H  -0.114994  -1.472551  -0.922620
