14
butane_opt
C  -3.957528   0.276610   0.039007
C  -2.701519  -0.633604   0.021651
H  -4.853971  -0.273006   0.036395
H  -4.036592   0.837578  -0.795304
H  -3.965596   0.983554   0.951589
C  -1.381995   0.174402  -0.025975
H  -2.719413  -1.326851  -0.850860
H  -2.697021  -1.234135   0.874873
C  -0.169793  -0.686508   0.062440
H  -1.357509   0.812811   0.814126
H  -1.374197   0.887247  -0.990185
H  -0.145562  -1.266262   0.937738
H   0.750906  -0.087531   0.107907
H  -0.102685  -1.375219  -0.804200
