14
butane_opt
C  -3.969760   0.272514   0.057095
C  -2.700270  -0.624262   0.001502
H  -4.846597  -0.315748   0.038278
H  -4.008640   0.888696  -0.828824
H  -3.960174   0.971125   0.947955
C  -1.390376   0.170351  -0.037362
H  -2.746040  -1.294635  -0.854099
H  -2.658237  -1.236186   0.906692
C  -0.160227  -0.684380   0.066801
H  -1.357595   0.860342   0.831228
H  -1.311217   0.817871  -0.940062
H  -0.206006  -1.324521   0.983649
H   0.777224  -0.074196   0.087913
H  -0.063139  -1.373855  -0.795078
