14
butane_opt
C  -3.947427   0.277940   0.046023
C  -2.702902  -0.635004   0.020635
H  -4.809850  -0.276408  -0.081362
H  -3.986767   0.807002  -0.775531
H  -4.006894   1.023618   0.938456
C  -1.394722   0.181901  -0.030455
H  -2.766936  -1.330853  -0.832583
H  -2.650099  -1.269376   0.923345
C  -0.170465  -0.689099   0.060026
H  -1.370622   0.865720   0.828696
H  -1.357635   0.805693  -0.927499
H  -0.170948  -1.350585   0.968255
H   0.796924  -0.057042   0.019276
H  -0.124804  -1.308084  -0.771576
