butane_opt
 OpenBabel08242015413D

 14 13  0  0  0  0  0  0  0  0999 V2000
   -3.9579    0.2751    0.0381 C   0  0  0  0  0  0  0  0  0  0  0  0
   -2.7051   -0.6179    0.0138 C   0  0  0  0  0  0  0  0  0  0  0  0
   -4.8328   -0.3092   -0.0274 H   0  0  0  0  0  0  0  0  0  0  0  0
   -4.0111    0.8401   -0.8090 H   0  0  0  0  0  0  0  0  0  0  0  0
   -3.9619    0.9799    0.9321 H   0  0  0  0  0  0  0  0  0  0  0  0
   -1.3916    0.1752    0.0050 C   0  0  0  0  0  0  0  0  0  0  0  0
   -2.7206   -1.3807   -0.8648 H   0  0  0  0  0  0  0  0  0  0  0  0
   -2.7757   -1.2317    0.8982 H   0  0  0  0  0  0  0  0  0  0  0  0
   -0.1544   -0.6892    0.0494 C   0  0  0  0  0  0  0  0  0  0  0  0
   -1.3987    0.8010    0.8114 H   0  0  0  0  0  0  0  0  0  0  0  0
   -1.3530    0.8534   -0.9297 H   0  0  0  0  0  0  0  0  0  0  0  0
   -0.0811   -1.3818    0.9875 H   0  0  0  0  0  0  0  0  0  0  0  0
    0.7667   -0.0811   -0.0810 H   0  0  0  0  0  0  0  0  0  0  0  0
   -0.1588   -1.2652   -0.7409 H   0  0  0  0  0  0  0  0  0  0  0  0
  1  5  1  0  0  0  0
  2  1  1  0  0  0  0
  2  8  1  0  0  0  0
  3  1  1  0  0  0  0
  4  1  1  0  0  0  0
  6  2  1  0  0  0  0
  6  9  1  0  0  0  0
  6 10  1  0  0  0  0
  7  2  1  0  0  0  0
  9 12  1  0  0  0  0
 11  6  1  0  0  0  0
 13  9  1  0  0  0  0
 14  9  1  0  0  0  0
M  END
$$$$
