14
butane_opt
C  -3.931015   0.276497  -0.002252
C  -2.697147  -0.624958   0.048727
H  -4.850177  -0.344556   0.077220
H  -3.974511   0.938757  -0.942010
H  -3.954792   0.861723   0.818542
C  -1.413636   0.185343   0.039890
H  -2.649131  -1.301649  -0.794265
H  -2.748737  -1.264816   0.952560
C  -0.173653  -0.689475   0.007226
H  -1.316810   0.913468   0.973966
H  -1.391351   0.744968  -0.802908
H  -0.153417  -1.363302   0.963351
H   0.757413  -0.078819  -0.098224
H  -0.160750  -1.338817  -0.835809
