butane_opt
 OpenBabel08242015413D

 14 13  0  0  0  0  0  0  0  0999 V2000
   -3.9549    0.2804    0.0311 C   0  0  0  0  0  0  0  0  0  0  0  0
   -2.7067   -0.6418    0.0443 C   0  0  0  0  0  0  0  0  0  0  0  0
   -4.8400   -0.2951   -0.1086 H   0  0  0  0  0  0  0  0  0  0  0  0
   -3.9438    0.7484   -0.7744 H   0  0  0  0  0  0  0  0  0  0  0  0
   -4.0661    1.0664    0.9567 H   0  0  0  0  0  0  0  0  0  0  0  0
   -1.3929    0.1822   -0.0167 C   0  0  0  0  0  0  0  0  0  0  0  0
   -2.7222   -1.3486   -0.8304 H   0  0  0  0  0  0  0  0  0  0  0  0
   -2.6534   -1.2155    0.8832 H   0  0  0  0  0  0  0  0  0  0  0  0
   -0.1589   -0.6863    0.0495 C   0  0  0  0  0  0  0  0  0  0  0  0
   -1.3513    0.8277    0.8087 H   0  0  0  0  0  0  0  0  0  0  0  0
   -1.3705    0.8706   -0.9331 H   0  0  0  0  0  0  0  0  0  0  0  0
   -0.1544   -1.3551    0.9486 H   0  0  0  0  0  0  0  0  0  0  0  0
    0.7615   -0.0950   -0.0245 H   0  0  0  0  0  0  0  0  0  0  0  0
   -0.1231   -1.2917   -0.7667 H   0  0  0  0  0  0  0  0  0  0  0  0
  1  2  1  0  0  0  0
  1  5  1  0  0  0  0
  2  8  1  0  0  0  0
  3  1  1  0  0  0  0
  4  1  1  0  0  0  0
  6  2  1  0  0  0  0
  6  9  1  0  0  0  0
  6 10  1  0  0  0  0
  7  2  1  0  0  0  0
  9 12  1  0  0  0  0
 11  6  1  0  0  0  0
 13  9  1  0  0  0  0
 14  9  1  0  0  0  0
M  END
$$$$
