butane_opt
 OpenBabel08242015413D

 14 13  0  0  0  0  0  0  0  0999 V2000
   -3.9451    0.2566   -0.0068 C   0  0  0  0  0  0  0  0  0  0  0  0
   -2.6957   -0.6075    0.0635 C   0  0  0  0  0  0  0  0  0  0  0  0
   -4.8760   -0.3650    0.0587 H   0  0  0  0  0  0  0  0  0  0  0  0
   -3.9530    0.8977   -0.9246 H   0  0  0  0  0  0  0  0  0  0  0  0
   -3.9397    0.8436    0.7994 H   0  0  0  0  0  0  0  0  0  0  0  0
   -1.4099    0.2044    0.0321 C   0  0  0  0  0  0  0  0  0  0  0  0
   -2.6853   -1.2060   -0.7114 H   0  0  0  0  0  0  0  0  0  0  0  0
   -2.7816   -1.3118    1.0108 H   0  0  0  0  0  0  0  0  0  0  0  0
   -0.1534   -0.7050    0.0056 C   0  0  0  0  0  0  0  0  0  0  0  0
   -1.3758    0.9166    0.8980 H   0  0  0  0  0  0  0  0  0  0  0  0
   -1.4244    0.8121   -0.8556 H   0  0  0  0  0  0  0  0  0  0  0  0
   -0.1236   -1.2135    0.8444 H   0  0  0  0  0  0  0  0  0  0  0  0
    0.7126   -0.1541    0.1420 H   0  0  0  0  0  0  0  0  0  0  0  0
   -0.1213   -1.4871   -0.9653 H   0  0  0  0  0  0  0  0  0  0  0  0
  1  3  1  0  0  0  0
  1  2  1  0  0  0  0
  1  5  1  0  0  0  0
  2  8  1  0  0  0  0
  4  1  1  0  0  0  0
  6  2  1  0  0  0  0
  6 10  1  0  0  0  0
  7  2  1  0  0  0  0
  9  6  1  0  0  0  0
  9 13  1  0  0  0  0
  9 12  1  0  0  0  0
 11  6  1  0  0  0  0
 14  9  1  0  0  0  0
M  END
$$$$
