14
butane_opt
C  -3.939119   0.252810   0.034280
C  -2.707376  -0.601179   0.024473
H  -4.874884  -0.349178  -0.033485
H  -3.949155   0.802294  -0.825350
H  -3.981177   0.986292   0.937433
C  -1.395438   0.204231  -0.004393
H  -2.785979  -1.294782  -0.828312
H  -2.681360  -1.236102   0.906150
C  -0.159437  -0.701183   0.046731
H  -1.426792   0.798905   0.808053
H  -1.372675   0.876319  -0.918890
H  -0.111160  -1.363319   0.983959
H   0.718447  -0.165734   0.011055
H  -0.133922  -1.388216  -0.812185
