butane_opt
 OpenBabel08242015413D

 14 13  0  0  0  0  0  0  0  0999 V2000
   -3.9386    0.2763   -0.0164 C   0  0  0  0  0  0  0  0  0  0  0  0
   -2.6953   -0.6295    0.0723 C   0  0  0  0  0  0  0  0  0  0  0  0
   -4.8442   -0.3245   -0.0142 H   0  0  0  0  0  0  0  0  0  0  0  0
   -3.9471    0.9081   -0.9165 H   0  0  0  0  0  0  0  0  0  0  0  0
   -4.0102    0.9350    0.8281 H   0  0  0  0  0  0  0  0  0  0  0  0
   -1.4061    0.1711    0.0601 C   0  0  0  0  0  0  0  0  0  0  0  0
   -2.6289   -1.2892   -0.7837 H   0  0  0  0  0  0  0  0  0  0  0  0
   -2.7813   -1.2564    0.9597 H   0  0  0  0  0  0  0  0  0  0  0  0
   -0.1636   -0.6854   -0.0025 C   0  0  0  0  0  0  0  0  0  0  0  0
   -1.3778    0.8466    0.9189 H   0  0  0  0  0  0  0  0  0  0  0  0
   -1.4421    0.7996   -0.8411 H   0  0  0  0  0  0  0  0  0  0  0  0
   -0.0815   -1.3077    0.8706 H   0  0  0  0  0  0  0  0  0  0  0  0
    0.7802   -0.0790   -0.0858 H   0  0  0  0  0  0  0  0  0  0  0  0
   -0.2508   -1.2869   -0.8454 H   0  0  0  0  0  0  0  0  0  0  0  0
  1  3  1  0  0  0  0
  1  2  1  0  0  0  0
  1  5  1  0  0  0  0
  2  8  1  0  0  0  0
  4  1  1  0  0  0  0
  6  2  1  0  0  0  0
  6 10  1  0  0  0  0
  7  2  1  0  0  0  0
  9  6  1  0  0  0  0
  9 12  1  0  0  0  0
 11  6  1  0  0  0  0
 13  9  1  0  0  0  0
 14  9  1  0  0  0  0
M  END
$$$$
