butane_opt
 OpenBabel08242015413D

 14 13  0  0  0  0  0  0  0  0999 V2000
   -3.9439    0.2537   -0.0057 C   0  0  0  0  0  0  0  0  0  0  0  0
   -2.6998   -0.6110    0.0752 C   0  0  0  0  0  0  0  0  0  0  0  0
   -4.8362   -0.3400   -0.0754 H   0  0  0  0  0  0  0  0  0  0  0  0
   -3.8909    0.8190   -0.8721 H   0  0  0  0  0  0  0  0  0  0  0  0
   -4.0300    0.9380    0.8386 H   0  0  0  0  0  0  0  0  0  0  0  0
   -1.4118    0.2112    0.0362 C   0  0  0  0  0  0  0  0  0  0  0  0
   -2.7275   -1.2490   -0.7461 H   0  0  0  0  0  0  0  0  0  0  0  0
   -2.7820   -1.2596    0.9799 H   0  0  0  0  0  0  0  0  0  0  0  0
   -0.1530   -0.7091    0.0062 C   0  0  0  0  0  0  0  0  0  0  0  0
   -1.4290    0.8472    0.8676 H   0  0  0  0  0  0  0  0  0  0  0  0
   -1.4085    0.8577   -0.8639 H   0  0  0  0  0  0  0  0  0  0  0  0
   -0.0446   -1.2947    0.8433 H   0  0  0  0  0  0  0  0  0  0  0  0
    0.7746   -0.1193    0.0214 H   0  0  0  0  0  0  0  0  0  0  0  0
   -0.1516   -1.4076   -0.8924 H   0  0  0  0  0  0  0  0  0  0  0  0
  1  2  1  0  0  0  0
  1  5  1  0  0  0  0
  2  8  1  0  0  0  0
  3  1  1  0  0  0  0
  4  1  1  0  0  0  0
  6  2  1  0  0  0  0
  6 10  1  0  0  0  0
  7  2  1  0  0  0  0
  9 13  1  0  0  0  0
  9  6  1  0  0  0  0
  9 12  1  0  0  0  0
 11  6  1  0  0  0  0
 14  9  1  0  0  0  0
M  END
$$$$
