butane_opt
 OpenBabel08242015413D

 14 13  0  0  0  0  0  0  0  0999 V2000
   -3.9363    0.2669   -0.0043 C   0  0  0  0  0  0  0  0  0  0  0  0
   -2.6934   -0.6237    0.0532 C   0  0  0  0  0  0  0  0  0  0  0  0
   -4.8606   -0.3296    0.0548 H   0  0  0  0  0  0  0  0  0  0  0  0
   -3.9425    0.9671   -0.9870 H   0  0  0  0  0  0  0  0  0  0  0  0
   -3.9783    0.8773    0.7972 H   0  0  0  0  0  0  0  0  0  0  0  0
   -1.4044    0.1879    0.0577 C   0  0  0  0  0  0  0  0  0  0  0  0
   -2.6881   -1.2848   -0.7731 H   0  0  0  0  0  0  0  0  0  0  0  0
   -2.7548   -1.2615    0.9415 H   0  0  0  0  0  0  0  0  0  0  0  0
   -0.1700   -0.6909    0.0057 C   0  0  0  0  0  0  0  0  0  0  0  0
   -1.3664    0.8885    0.9445 H   0  0  0  0  0  0  0  0  0  0  0  0
   -1.3829    0.8134   -0.8342 H   0  0  0  0  0  0  0  0  0  0  0  0
   -0.0656   -1.3331    0.9074 H   0  0  0  0  0  0  0  0  0  0  0  0
    0.7400   -0.1234   -0.0829 H   0  0  0  0  0  0  0  0  0  0  0  0
   -0.2731   -1.3668   -0.8779 H   0  0  0  0  0  0  0  0  0  0  0  0
  1  2  1  0  0  0  0
  1  3  1  0  0  0  0
  1  5  1  0  0  0  0
  2  6  1  0  0  0  0
  2  8  1  0  0  0  0
  4  1  1  0  0  0  0
  6 10  1  0  0  0  0
  7  2  1  0  0  0  0
  9  6  1  0  0  0  0
  9 12  1  0  0  0  0
 11  6  1  0  0  0  0
 13  9  1  0  0  0  0
 14  9  1  0  0  0  0
M  END
$$$$
