14
butane_opt
C  -3.941784   0.278063   0.045276
C  -2.689906  -0.629025  -0.002748
H  -4.858454  -0.296515   0.173542
H  -4.045082   0.905914  -0.879328
H  -3.894405   0.911010   0.883710
C  -1.399699   0.166024  -0.014947
H  -2.772161  -1.337385  -0.889126
H  -2.667712  -1.204846   0.869319
C  -0.166944  -0.686121   0.060884
H  -1.387214   0.912541   0.880942
H  -1.371481   0.792916  -0.917659
H  -0.247013  -1.352241   1.011776
H   0.748732  -0.070433  -0.003977
H  -0.149241  -1.280461  -0.752516
