butane_opt
 OpenBabel08242015413D

 14 13  0  0  0  0  0  0  0  0999 V2000
   -3.9488    0.2712    0.0372 C   0  0  0  0  0  0  0  0  0  0  0  0
   -2.6906   -0.6168    0.0336 C   0  0  0  0  0  0  0  0  0  0  0  0
   -4.8646   -0.3254   -0.0928 H   0  0  0  0  0  0  0  0  0  0  0  0
   -3.9650    0.7851   -0.7950 H   0  0  0  0  0  0  0  0  0  0  0  0
   -3.9958    1.0813    0.9961 H   0  0  0  0  0  0  0  0  0  0  0  0
   -1.3968    0.1659   -0.0254 C   0  0  0  0  0  0  0  0  0  0  0  0
   -2.7013   -1.3286   -0.8268 H   0  0  0  0  0  0  0  0  0  0  0  0
   -2.6824   -1.2116    0.9116 H   0  0  0  0  0  0  0  0  0  0  0  0
   -0.1683   -0.6837    0.0520 C   0  0  0  0  0  0  0  0  0  0  0  0
   -1.3679    0.8173    0.7917 H   0  0  0  0  0  0  0  0  0  0  0  0
   -1.3548    0.7903   -0.9088 H   0  0  0  0  0  0  0  0  0  0  0  0
   -0.2324   -1.3644    1.0010 H   0  0  0  0  0  0  0  0  0  0  0  0
    0.7449   -0.0781   -0.0017 H   0  0  0  0  0  0  0  0  0  0  0  0
   -0.1430   -1.2816   -0.7899 H   0  0  0  0  0  0  0  0  0  0  0  0
  1  5  1  0  0  0  0
  2  1  1  0  0  0  0
  2  8  1  0  0  0  0
  3  1  1  0  0  0  0
  4  1  1  0  0  0  0
  6  2  1  0  0  0  0
  6  9  1  0  0  0  0
  6 10  1  0  0  0  0
  7  2  1  0  0  0  0
  9 12  1  0  0  0  0
 11  6  1  0  0  0  0
 13  9  1  0  0  0  0
 14  9  1  0  0  0  0
M  END
$$$$
