butane_opt
 OpenBabel08242015413D

 14 13  0  0  0  0  0  0  0  0999 V2000
   -3.9461    0.2623    0.0402 C   0  0  0  0  0  0  0  0  0  0  0  0
   -2.7011   -0.6105   -0.0069 C   0  0  0  0  0  0  0  0  0  0  0  0
   -4.8423   -0.3300    0.1710 H   0  0  0  0  0  0  0  0  0  0  0  0
   -4.0202    0.8938   -0.8735 H   0  0  0  0  0  0  0  0  0  0  0  0
   -3.8858    0.9226    0.9294 H   0  0  0  0  0  0  0  0  0  0  0  0
   -1.4004    0.1942   -0.0159 C   0  0  0  0  0  0  0  0  0  0  0  0
   -2.7814   -1.3104   -0.8465 H   0  0  0  0  0  0  0  0  0  0  0  0
   -2.7170   -1.2401    0.8882 H   0  0  0  0  0  0  0  0  0  0  0  0
   -0.1563   -0.7029    0.0657 C   0  0  0  0  0  0  0  0  0  0  0  0
   -1.4148    0.8608    0.8377 H   0  0  0  0  0  0  0  0  0  0  0  0
   -1.3968    0.7900   -0.8823 H   0  0  0  0  0  0  0  0  0  0  0  0
   -0.1380   -1.3417    0.9856 H   0  0  0  0  0  0  0  0  0  0  0  0
    0.7757   -0.0896    0.0134 H   0  0  0  0  0  0  0  0  0  0  0  0
   -0.1576   -1.3313   -0.7782 H   0  0  0  0  0  0  0  0  0  0  0  0
  1  3  1  0  0  0  0
  1  5  1  0  0  0  0
  2  1  1  0  0  0  0
  2  8  1  0  0  0  0
  4  1  1  0  0  0  0
  6  2  1  0  0  0  0
  6  9  1  0  0  0  0
  6 10  1  0  0  0  0
  7  2  1  0  0  0  0
  9 12  1  0  0  0  0
 11  6  1  0  0  0  0
 13  9  1  0  0  0  0
 14  9  1  0  0  0  0
M  END
$$$$
