14
butane_opt
C  -3.946943   0.281523   0.012638
C  -2.698448  -0.629881   0.039848
H  -4.895640  -0.329871   0.132207
H  -4.002808   1.005107  -0.961299
H  -3.957956   0.819653   0.766700
C  -1.398897   0.171050   0.034298
H  -2.710069  -1.332967  -0.835072
H  -2.647888  -1.232848   0.903404
C  -0.161927  -0.681598   0.018924
H  -1.387277   0.845199   0.888911
H  -1.400117   0.779086  -0.813173
H  -0.131800  -1.311836   0.897071
H   0.762270  -0.047745   0.028019
H  -0.181444  -1.354830  -0.848134
