butane_opt
 OpenBabel08242015413D

 14 13  0  0  0  0  0  0  0  0999 V2000
   -3.9437    0.2589    0.0477 C   0  0  0  0  0  0  0  0  0  0  0  0
   -2.7058   -0.5960    0.0133 C   0  0  0  0  0  0  0  0  0  0  0  0
   -4.8725   -0.3433    0.0503 H   0  0  0  0  0  0  0  0  0  0  0  0
   -3.9712    0.8026   -0.8119 H   0  0  0  0  0  0  0  0  0  0  0  0
   -3.9263    0.9790    0.9427 H   0  0  0  0  0  0  0  0  0  0  0  0
   -1.3986    0.1842   -0.0316 C   0  0  0  0  0  0  0  0  0  0  0  0
   -2.7218   -1.2619   -0.8338 H   0  0  0  0  0  0  0  0  0  0  0  0
   -2.6808   -1.2766    0.9317 H   0  0  0  0  0  0  0  0  0  0  0  0
   -0.1598   -0.6976    0.0577 C   0  0  0  0  0  0  0  0  0  0  0  0
   -1.4359    0.8324    0.7705 H   0  0  0  0  0  0  0  0  0  0  0  0
   -1.3177    0.8176   -0.9426 H   0  0  0  0  0  0  0  0  0  0  0  0
   -0.2188   -1.2848    0.9350 H   0  0  0  0  0  0  0  0  0  0  0  0
    0.7238   -0.1292    0.1666 H   0  0  0  0  0  0  0  0  0  0  0  0
   -0.0977   -1.4078   -0.8108 H   0  0  0  0  0  0  0  0  0  0  0  0
  1  3  1  0  0  0  0
  1  5  1  0  0  0  0
  2  1  1  0  0  0  0
  2  8  1  0  0  0  0
  4  1  1  0  0  0  0
  6  2  1  0  0  0  0
  6  9  1  0  0  0  0
  6 10  1  0  0  0  0
  7  2  1  0  0  0  0
  9 13  1  0  0  0  0
  9 12  1  0  0  0  0
 11  6  1  0  0  0  0
 14  9  1  0  0  0  0
M  END
$$$$
