14
butane_opt
C  -3.933893   0.256324  -0.013206
C  -2.703479  -0.587639   0.066049
H  -4.866527  -0.368663   0.021446
H  -3.916350   0.868165  -0.921529
H  -3.957321   0.852693   0.825992
C  -1.412434   0.189190   0.039505
H  -2.685610  -1.282435  -0.778520
H  -2.729147  -1.240719   0.996145
C  -0.161220  -0.704111   0.000083
H  -1.359519   0.950671   0.971081
H  -1.390512   0.740865  -0.812516
H  -0.087402  -1.378394   0.929277
H   0.731488  -0.125008  -0.058700
H  -0.221855  -1.336104  -0.840201
