14
butane_opt
C  -3.963038   0.268611  -0.009232
C  -2.693175  -0.617215   0.060002
H  -4.860164  -0.304454   0.139446
H  -4.040193   0.965691  -0.951354
H  -3.959028   0.813847   0.752482
C  -1.401270   0.178312   0.041422
H  -2.692231  -1.321481  -0.788422
H  -2.687398  -1.208394   0.935459
C  -0.159582  -0.688354   0.004301
H  -1.306361   0.871515   0.932388
H  -1.397498   0.758962  -0.821307
H  -0.098001  -1.285341   0.881454
H   0.767423  -0.073867   0.042295
H  -0.149507  -1.377415  -0.850011
