butane_opt
 OpenBabel08242015413D

 14 13  0  0  0  0  0  0  0  0999 V2000
   -3.9590    0.2765    0.0393 C   0  0  0  0  0  0  0  0  0  0  0  0
   -2.7023   -0.6258    0.0313 C   0  0  0  0  0  0  0  0  0  0  0  0
   -4.8550   -0.3018    0.0504 H   0  0  0  0  0  0  0  0  0  0  0  0
   -4.0362    0.8944   -0.8561 H   0  0  0  0  0  0  0  0  0  0  0  0
   -3.9456    0.9645    0.9082 H   0  0  0  0  0  0  0  0  0  0  0  0
   -1.3936    0.1721   -0.0228 C   0  0  0  0  0  0  0  0  0  0  0  0
   -2.7547   -1.3364   -0.8326 H   0  0  0  0  0  0  0  0  0  0  0  0
   -2.6997   -1.2573    0.9043 H   0  0  0  0  0  0  0  0  0  0  0  0
   -0.1488   -0.6889    0.0570 C   0  0  0  0  0  0  0  0  0  0  0  0
   -1.4170    0.8087    0.7862 H   0  0  0  0  0  0  0  0  0  0  0  0
   -1.2976    0.8596   -0.9769 H   0  0  0  0  0  0  0  0  0  0  0  0
   -0.2353   -1.1810    0.8780 H   0  0  0  0  0  0  0  0  0  0  0  0
    0.7913   -0.0970    0.1671 H   0  0  0  0  0  0  0  0  0  0  0  0
   -0.1279   -1.4292   -0.8608 H   0  0  0  0  0  0  0  0  0  0  0  0
  1  3  1  0  0  0  0
  1  5  1  0  0  0  0
  2  1  1  0  0  0  0
  2  8  1  0  0  0  0
  4  1  1  0  0  0  0
  6  2  1  0  0  0  0
  6  9  1  0  0  0  0
  6 10  1  0  0  0  0
  7  2  1  0  0  0  0
  9 13  1  0  0  0  0
  9 12  1  0  0  0  0
 11  6  1  0  0  0  0
 14  9  1  0  0  0  0
M  END
$$$$
