butane_opt
 OpenBabel08242015413D

 14 13  0  0  0  0  0  0  0  0999 V2000
   -3.9363    0.2682   -0.0099 C   0  0  0  0  0  0  0  0  0  0  0  0
   -2.7058   -0.6123    0.0731 C   0  0  0  0  0  0  0  0  0  0  0  0
   -4.8734   -0.3178   -0.0867 H   0  0  0  0  0  0  0  0  0  0  0  0
   -3.8988    0.8143   -0.8814 H   0  0  0  0  0  0  0  0  0  0  0  0
   -3.9883    0.9962    0.8845 H   0  0  0  0  0  0  0  0  0  0  0  0
   -1.4028    0.1778    0.0347 C   0  0  0  0  0  0  0  0  0  0  0  0
   -2.6719   -1.2397   -0.7529 H   0  0  0  0  0  0  0  0  0  0  0  0
   -2.7496   -1.3156    1.0083 H   0  0  0  0  0  0  0  0  0  0  0  0
   -0.1684   -0.6965    0.0080 C   0  0  0  0  0  0  0  0  0  0  0  0
   -1.3384    0.8747    0.8861 H   0  0  0  0  0  0  0  0  0  0  0  0
   -1.4589    0.8256   -0.8557 H   0  0  0  0  0  0  0  0  0  0  0  0
   -0.1479   -1.2979    0.8922 H   0  0  0  0  0  0  0  0  0  0  0  0
    0.8070   -0.0352   -0.0411 H   0  0  0  0  0  0  0  0  0  0  0  0
   -0.1519   -1.4207   -0.8812 H   0  0  0  0  0  0  0  0  0  0  0  0
  1  2  1  0  0  0  0
  1  5  1  0  0  0  0
  2  8  1  0  0  0  0
  3  1  1  0  0  0  0
  4  1  1  0  0  0  0
  6  2  1  0  0  0  0
  6 10  1  0  0  0  0
  7  2  1  0  0  0  0
  9  6  1  0  0  0  0
  9 12  1  0  0  0  0
 11  6  1  0  0  0  0
 13  9  1  0  0  0  0
 14  9  1  0  0  0  0
M  END
$$$$
