14
butane_opt
C  -3.933118   0.252159   0.016730
C  -2.692050  -0.603260   0.027159
H  -4.867397  -0.347749   0.103882
H  -3.985690   0.914759  -0.914768
H  -3.925694   0.874588   0.861967
C  -1.406886   0.194449   0.016198
H  -2.743916  -1.246157  -0.796051
H  -2.717545  -1.266019   0.970691
C  -0.173758  -0.703183   0.029264
H  -1.443519   0.912681   0.894394
H  -1.372686   0.809778  -0.875869
H  -0.096438  -1.298928   0.881493
H   0.728335  -0.137594   0.062275
H  -0.123245  -1.371246  -0.829427
