14
butane_opt
C  -3.921491   0.259813   0.055430
C  -2.708138  -0.601960  -0.003101
H  -4.895864  -0.386831   0.169116
H  -4.014611   0.936801  -0.881131
H  -3.860692   0.880500   0.904337
C  -1.410391   0.189360  -0.027011
H  -2.755826  -1.365518  -0.882250
H  -2.713068  -1.131425   0.819298
C  -0.159179  -0.706561   0.071182
H  -1.441867   0.849114   0.814114
H  -1.408270   0.829347  -0.930900
H  -0.205208  -1.328196   0.987207
H   0.757438  -0.092109   0.042418
H  -0.090744  -1.352354  -0.767231
