butane_opt
 OpenBabel08242015413D

 14 13  0  0  0  0  0  0  0  0999 V2000
   -3.9323    0.2530    0.0050 C   0  0  0  0  0  0  0  0  0  0  0  0
   -2.7099   -0.6026    0.0335 C   0  0  0  0  0  0  0  0  0  0  0  0
   -4.8263   -0.3504    0.1667 H   0  0  0  0  0  0  0  0  0  0  0  0
   -4.0538    0.9553   -0.9270 H   0  0  0  0  0  0  0  0  0  0  0  0
   -3.9064    0.8175    0.8063 H   0  0  0  0  0  0  0  0  0  0  0  0
   -1.4121    0.2023    0.0294 C   0  0  0  0  0  0  0  0  0  0  0  0
   -2.7275   -1.2488   -0.7817 H   0  0  0  0  0  0  0  0  0  0  0  0
   -2.7552   -1.2514    0.9626 H   0  0  0  0  0  0  0  0  0  0  0  0
   -0.1567   -0.7077    0.0176 C   0  0  0  0  0  0  0  0  0  0  0  0
   -1.3860    0.9192    0.8908 H   0  0  0  0  0  0  0  0  0  0  0  0
   -1.3450    0.8016   -0.8262 H   0  0  0  0  0  0  0  0  0  0  0  0
   -0.1130   -1.3144    0.9042 H   0  0  0  0  0  0  0  0  0  0  0  0
    0.7468   -0.1232    0.0772 H   0  0  0  0  0  0  0  0  0  0  0  0
   -0.1168   -1.4213   -0.8741 H   0  0  0  0  0  0  0  0  0  0  0  0
  1  2  1  0  0  0  0
  1  3  1  0  0  0  0
  1  5  1  0  0  0  0
  2  8  1  0  0  0  0
  4  1  1  0  0  0  0
  6  2  1  0  0  0  0
  6 10  1  0  0  0  0
  7  2  1  0  0  0  0
  9  6  1  0  0  0  0
  9 13  1  0  0  0  0
  9 12  1  0  0  0  0
 11  6  1  0  0  0  0
 14  9  1  0  0  0  0
M  END
$$$$
