14
butane_opt
C  -3.931466   0.278663   0.007508
C  -2.695713  -0.634973   0.062531
H  -4.835403  -0.316973   0.040841
H  -3.962630   0.957156  -0.927607
H  -4.013827   0.897748   0.841390
C  -1.408950   0.179927   0.010877
H  -2.684643  -1.272046  -0.752733
H  -2.733499  -1.306781   0.991186
C  -0.169501  -0.685076   0.010397
H  -1.360790   0.880843   0.854172
H  -1.405277   0.746929  -0.843738
H  -0.221760  -1.207592   0.829608
H   0.773294  -0.053078   0.193170
H  -0.113429  -1.454329  -0.891117
