14
butane_opt
C  -3.940683   0.269349   0.003236
C  -2.693525  -0.615563   0.055720
H  -4.846002  -0.284041   0.061319
H  -3.993343   0.931103  -0.926072
H  -3.958108   0.888162   0.831932
C  -1.404312   0.161150   0.018407
H  -2.696079  -1.236525  -0.736704
H  -2.720993  -1.275254   0.994364
C  -0.175124  -0.692648   0.018518
H  -1.321867   0.857965   0.875273
H  -1.400424   0.830101  -0.881349
H  -0.223361  -1.135142   0.819900
H   0.797329  -0.035859   0.138118
H  -0.100674  -1.481101  -0.909583
