butane_opt
 OpenBabel08242015413D

 14 13  0  0  0  0  0  0  0  0999 V2000
   -3.9487    0.2634    0.0420 C   0  0  0  0  0  0  0  0  0  0  0  0
   -2.7036   -0.6184    0.0112 C   0  0  0  0  0  0  0  0  0  0  0  0
   -4.8506   -0.3376    0.0495 H   0  0  0  0  0  0  0  0  0  0  0  0
   -3.9588    0.9019   -0.8891 H   0  0  0  0  0  0  0  0  0  0  0  0
   -3.8990    0.8828    0.8750 H   0  0  0  0  0  0  0  0  0  0  0  0
   -1.4063    0.1984    0.0080 C   0  0  0  0  0  0  0  0  0  0  0  0
   -2.7696   -1.3537   -0.8864 H   0  0  0  0  0  0  0  0  0  0  0  0
   -2.7093   -1.1903    0.8379 H   0  0  0  0  0  0  0  0  0  0  0  0
   -0.1577   -0.7024    0.0477 C   0  0  0  0  0  0  0  0  0  0  0  0
   -1.3507    0.8782    0.8736 H   0  0  0  0  0  0  0  0  0  0  0  0
   -1.3986    0.8715   -0.9162 H   0  0  0  0  0  0  0  0  0  0  0  0
   -0.0823   -1.3934    1.0142 H   0  0  0  0  0  0  0  0  0  0  0  0
    0.7176   -0.1498   -0.0623 H   0  0  0  0  0  0  0  0  0  0  0  0
   -0.1325   -1.2722   -0.7582 H   0  0  0  0  0  0  0  0  0  0  0  0
  1  3  1  0  0  0  0
  1  5  1  0  0  0  0
  2  1  1  0  0  0  0
  2  8  1  0  0  0  0
  4  1  1  0  0  0  0
  6  2  1  0  0  0  0
  6  9  1  0  0  0  0
  6 10  1  0  0  0  0
  7  2  1  0  0  0  0
  9 12  1  0  0  0  0
 11  6  1  0  0  0  0
 13  9  1  0  0  0  0
 14  9  1  0  0  0  0
M  END
$$$$
