14
butane_opt
C  -3.920759   0.254794   0.003049
C  -2.707788  -0.606634   0.045941
H  -4.877103  -0.367204   0.150971
H  -3.983787   1.002194  -0.983015
H  -3.915361   0.801319   0.762156
C  -1.414293   0.195904   0.031930
H  -2.682142  -1.265523  -0.768419
H  -2.711270  -1.217497   0.932685
C  -0.170462  -0.701155   0.018682
H  -1.388447   0.955539   0.946340
H  -1.389485   0.738379  -0.807028
H  -0.101885  -1.284624   0.901160
H   0.718515  -0.145836  -0.032241
H  -0.126992  -1.410775  -0.879968
