butane_opt
 OpenBabel08242015413D

 14 13  0  0  0  0  0  0  0  0999 V2000
   -3.9436    0.2571    0.0356 C   0  0  0  0  0  0  0  0  0  0  0  0
   -2.6997   -0.6103    0.0381 C   0  0  0  0  0  0  0  0  0  0  0  0
   -4.8782   -0.3724    0.0199 H   0  0  0  0  0  0  0  0  0  0  0  0
   -3.9285    0.8524   -0.8853 H   0  0  0  0  0  0  0  0  0  0  0  0
   -3.9665    0.9455    0.9300 H   0  0  0  0  0  0  0  0  0  0  0  0
   -1.4042    0.2050   -0.0207 C   0  0  0  0  0  0  0  0  0  0  0  0
   -2.7588   -1.3068   -0.8286 H   0  0  0  0  0  0  0  0  0  0  0  0
   -2.7454   -1.2180    0.9319 H   0  0  0  0  0  0  0  0  0  0  0  0
   -0.1542   -0.7061    0.0494 C   0  0  0  0  0  0  0  0  0  0  0  0
   -1.4128    0.8587    0.8032 H   0  0  0  0  0  0  0  0  0  0  0  0
   -1.3608    0.8833   -0.9459 H   0  0  0  0  0  0  0  0  0  0  0  0
   -0.1459   -1.2544    0.9070 H   0  0  0  0  0  0  0  0  0  0  0  0
    0.7199   -0.1540    0.1429 H   0  0  0  0  0  0  0  0  0  0  0  0
   -0.1144   -1.4664   -0.8655 H   0  0  0  0  0  0  0  0  0  0  0  0
  1  2  1  0  0  0  0
  1  5  1  0  0  0  0
  2  8  1  0  0  0  0
  3  1  1  0  0  0  0
  4  1  1  0  0  0  0
  6  2  1  0  0  0  0
  6  9  1  0  0  0  0
  6 10  1  0  0  0  0
  7  2  1  0  0  0  0
  9 13  1  0  0  0  0
  9 12  1  0  0  0  0
 11  6  1  0  0  0  0
 14  9  1  0  0  0  0
M  END
$$$$
