butane_opt
 OpenBabel08242015413D

 14 13  0  0  0  0  0  0  0  0999 V2000
   -3.9465    0.2561    0.0441 C   0  0  0  0  0  0  0  0  0  0  0  0
   -2.7062   -0.6015    0.0255 C   0  0  0  0  0  0  0  0  0  0  0  0
   -4.8923   -0.3721   -0.1193 H   0  0  0  0  0  0  0  0  0  0  0  0
   -3.9588    0.7501   -0.7867 H   0  0  0  0  0  0  0  0  0  0  0  0
   -4.0068    1.0635    0.9775 H   0  0  0  0  0  0  0  0  0  0  0  0
   -1.4012    0.1922   -0.0231 C   0  0  0  0  0  0  0  0  0  0  0  0
   -2.7274   -1.3038   -0.8324 H   0  0  0  0  0  0  0  0  0  0  0  0
   -2.6812   -1.2095    0.8995 H   0  0  0  0  0  0  0  0  0  0  0  0
   -0.1532   -0.7030    0.0646 C   0  0  0  0  0  0  0  0  0  0  0  0
   -1.3927    0.7933    0.7695 H   0  0  0  0  0  0  0  0  0  0  0  0
   -1.3787    0.8603   -0.9410 H   0  0  0  0  0  0  0  0  0  0  0  0
   -0.0843   -1.3461    0.9920 H   0  0  0  0  0  0  0  0  0  0  0  0
    0.7420   -0.1125   -0.0343 H   0  0  0  0  0  0  0  0  0  0  0  0
   -0.1481   -1.3319   -0.8039 H   0  0  0  0  0  0  0  0  0  0  0  0
  1  5  1  0  0  0  0
  2  1  1  0  0  0  0
  2  8  1  0  0  0  0
  3  1  1  0  0  0  0
  4  1  1  0  0  0  0
  6  2  1  0  0  0  0
  6  9  1  0  0  0  0
  6 10  1  0  0  0  0
  7  2  1  0  0  0  0
  9 12  1  0  0  0  0
 11  6  1  0  0  0  0
 13  9  1  0  0  0  0
 14  9  1  0  0  0  0
M  END
$$$$
