butane_opt
 OpenBabel08242015413D

 14 13  0  0  0  0  0  0  0  0999 V2000
   -3.9357    0.2576   -0.0086 C   0  0  0  0  0  0  0  0  0  0  0  0
   -2.6994   -0.5991    0.0492 C   0  0  0  0  0  0  0  0  0  0  0  0
   -4.8988   -0.3718    0.0119 H   0  0  0  0  0  0  0  0  0  0  0  0
   -3.9259    0.8318   -0.9015 H   0  0  0  0  0  0  0  0  0  0  0  0
   -3.9669    0.9070    0.8489 H   0  0  0  0  0  0  0  0  0  0  0  0
   -1.4126    0.1844    0.0513 C   0  0  0  0  0  0  0  0  0  0  0  0
   -2.6973   -1.2127   -0.7531 H   0  0  0  0  0  0  0  0  0  0  0  0
   -2.7425   -1.2418    0.9515 H   0  0  0  0  0  0  0  0  0  0  0  0
   -0.1565   -0.7015    0.0094 C   0  0  0  0  0  0  0  0  0  0  0  0
   -1.3867    0.9050    0.9255 H   0  0  0  0  0  0  0  0  0  0  0  0
   -1.4187    0.8081   -0.8089 H   0  0  0  0  0  0  0  0  0  0  0  0
   -0.0483   -1.3851    0.9283 H   0  0  0  0  0  0  0  0  0  0  0  0
    0.7186   -0.1279   -0.1373 H   0  0  0  0  0  0  0  0  0  0  0  0
   -0.1985   -1.2919   -0.8345 H   0  0  0  0  0  0  0  0  0  0  0  0
  1  3  1  0  0  0  0
  1  2  1  0  0  0  0
  1  5  1  0  0  0  0
  2  6  1  0  0  0  0
  2  8  1  0  0  0  0
  4  1  1  0  0  0  0
  6 10  1  0  0  0  0
  7  2  1  0  0  0  0
  9  6  1  0  0  0  0
  9 12  1  0  0  0  0
 11  6  1  0  0  0  0
 13  9  1  0  0  0  0
 14  9  1  0  0  0  0
M  END
$$$$
