14
butane_opt
C  -3.947456   0.266856   0.008109
C  -2.693676  -0.611970   0.051590
H  -4.873034  -0.313237  -0.011246
H  -3.946307   0.857285  -0.867208
H  -3.971788   0.958665   0.875487
C  -1.398636   0.174038   0.006721
H  -2.750280  -1.263671  -0.778150
H  -2.667690  -1.275260   0.965129
C  -0.175027  -0.691035   0.024220
H  -1.356491   0.881432   0.885169
H  -1.369046   0.794491  -0.844012
H  -0.116639  -1.313028   0.915001
H   0.761175  -0.062039   0.046253
H  -0.159898  -1.392278  -0.837938
