14
butane_opt
C  -3.930186   0.264244   0.049938
C  -2.700839  -0.597783   0.013175
H  -4.894328  -0.384749   0.081251
H  -3.969236   0.864637  -0.829283
H  -3.922702   0.933959   0.927630
C  -1.414661   0.177767  -0.030984
H  -2.775760  -1.335083  -0.882057
H  -2.653524  -1.213415   0.890721
C  -0.166120  -0.697379   0.064742
H  -1.377074   0.792078   0.776116
H  -1.346072   0.894095  -0.952331
H  -0.237569  -1.275180   0.939180
H   0.739741  -0.088012   0.147865
H  -0.038862  -1.432014  -0.831357
