14
butane_opt
C  -3.941450   0.253370  -0.001693
C  -2.713998  -0.615739   0.044442
H  -4.860823  -0.343513   0.165169
H  -4.047859   0.982627  -0.945151
H  -3.872596   0.854954   0.795581
C  -1.407599   0.206751   0.033558
H  -2.706443  -1.246192  -0.786610
H  -2.726293  -1.267240   0.934911
C  -0.148328  -0.708711   0.015530
H  -1.391413   0.908161   0.912449
H  -1.442127   0.785700  -0.837884
H  -0.095808  -1.264218   0.866842
H   0.762045  -0.117033   0.073235
H  -0.104491  -1.391477  -0.851319
