butane_opt
 OpenBabel08242015413D

 14 13  0  0  0  0  0  0  0  0999 V2000
   -3.9380    0.2586   -0.0246 C   0  0  0  0  0  0  0  0  0  0  0  0
   -2.7010   -0.6021    0.0984 C   0  0  0  0  0  0  0  0  0  0  0  0
   -4.8826   -0.3714   -0.0907 H   0  0  0  0  0  0  0  0  0  0  0  0
   -3.8556    0.8040   -0.8729 H   0  0  0  0  0  0  0  0  0  0  0  0
   -4.0542    0.9834    0.8724 H   0  0  0  0  0  0  0  0  0  0  0  0
   -1.4114    0.1859    0.0386 C   0  0  0  0  0  0  0  0  0  0  0  0
   -2.6812   -1.2815   -0.7551 H   0  0  0  0  0  0  0  0  0  0  0  0
   -2.7343   -1.2139    1.0112 H   0  0  0  0  0  0  0  0  0  0  0  0
   -0.1616   -0.7001   -0.0053 C   0  0  0  0  0  0  0  0  0  0  0  0
   -1.3299    0.8632    0.9016 H   0  0  0  0  0  0  0  0  0  0  0  0
   -1.3968    0.8446   -0.8684 H   0  0  0  0  0  0  0  0  0  0  0  0
   -0.1074   -1.3089    0.8730 H   0  0  0  0  0  0  0  0  0  0  0  0
    0.7262   -0.0959   -0.0113 H   0  0  0  0  0  0  0  0  0  0  0  0
   -0.1560   -1.4176   -0.8983 H   0  0  0  0  0  0  0  0  0  0  0  0
  1  2  1  0  0  0  0
  1  5  1  0  0  0  0
  2  8  1  0  0  0  0
  3  1  1  0  0  0  0
  4  1  1  0  0  0  0
  6  2  1  0  0  0  0
  6 10  1  0  0  0  0
  7  2  1  0  0  0  0
  9  6  1  0  0  0  0
  9 12  1  0  0  0  0
 11  6  1  0  0  0  0
 13  9  1  0  0  0  0
 14  9  1  0  0  0  0
M  END
$$$$
