butane_opt
 OpenBabel08242015413D

 14 13  0  0  0  0  0  0  0  0999 V2000
   -3.9424    0.2754    0.0161 C   0  0  0  0  0  0  0  0  0  0  0  0
   -2.6938   -0.6252    0.0393 C   0  0  0  0  0  0  0  0  0  0  0  0
   -4.8563   -0.3238    0.1024 H   0  0  0  0  0  0  0  0  0  0  0  0
   -3.9643    0.9234   -0.8995 H   0  0  0  0  0  0  0  0  0  0  0  0
   -3.9442    0.9231    0.8657 H   0  0  0  0  0  0  0  0  0  0  0  0
   -1.4085    0.1713    0.0046 C   0  0  0  0  0  0  0  0  0  0  0  0
   -2.6431   -1.2605   -0.7642 H   0  0  0  0  0  0  0  0  0  0  0  0
   -2.6891   -1.3242    0.9773 H   0  0  0  0  0  0  0  0  0  0  0  0
   -0.1654   -0.6797    0.0322 C   0  0  0  0  0  0  0  0  0  0  0  0
   -1.4148    0.8450    0.8183 H   0  0  0  0  0  0  0  0  0  0  0  0
   -1.3799    0.7684   -0.8687 H   0  0  0  0  0  0  0  0  0  0  0  0
   -0.2435   -1.1923    0.8439 H   0  0  0  0  0  0  0  0  0  0  0  0
    0.7578   -0.0724    0.1445 H   0  0  0  0  0  0  0  0  0  0  0  0
   -0.1267   -1.4562   -0.8982 H   0  0  0  0  0  0  0  0  0  0  0  0
  1  2  1  0  0  0  0
  1  3  1  0  0  0  0
  1  5  1  0  0  0  0
  2  8  1  0  0  0  0
  4  1  1  0  0  0  0
  6  9  1  0  0  0  0
  6  2  1  0  0  0  0
  6 10  1  0  0  0  0
  7  2  1  0  0  0  0
  9 13  1  0  0  0  0
  9 12  1  0  0  0  0
 11  6  1  0  0  0  0
 14  9  1  0  0  0  0
M  END
$$$$
