butane_opt
 OpenBabel08242015413D

 14 13  0  0  0  0  0  0  0  0999 V2000
   -3.9453    0.2687    0.0115 C   0  0  0  0  0  0  0  0  0  0  0  0
   -2.6937   -0.6254    0.0511 C   0  0  0  0  0  0  0  0  0  0  0  0
   -4.8459   -0.3025   -0.0886 H   0  0  0  0  0  0  0  0  0  0  0  0
   -3.9069    0.7987   -0.8284 H   0  0  0  0  0  0  0  0  0  0  0  0
   -4.0106    1.0520    0.9725 H   0  0  0  0  0  0  0  0  0  0  0  0
   -1.4084    0.1708    0.0074 C   0  0  0  0  0  0  0  0  0  0  0  0
   -2.6954   -1.2787   -0.7829 H   0  0  0  0  0  0  0  0  0  0  0  0
   -2.6657   -1.2767    0.9589 H   0  0  0  0  0  0  0  0  0  0  0  0
   -0.1729   -0.6777    0.0244 C   0  0  0  0  0  0  0  0  0  0  0  0
   -1.3566    0.8617    0.8521 H   0  0  0  0  0  0  0  0  0  0  0  0
   -1.4092    0.8202   -0.9066 H   0  0  0  0  0  0  0  0  0  0  0  0
   -0.1713   -1.3515    0.9581 H   0  0  0  0  0  0  0  0  0  0  0  0
    0.7635   -0.0890   -0.0053 H   0  0  0  0  0  0  0  0  0  0  0  0
   -0.0909   -1.3402   -0.8111 H   0  0  0  0  0  0  0  0  0  0  0  0
  1  2  1  0  0  0  0
  1  5  1  0  0  0  0
  2  8  1  0  0  0  0
  3  1  1  0  0  0  0
  4  1  1  0  0  0  0
  6  9  1  0  0  0  0
  6  2  1  0  0  0  0
  6 10  1  0  0  0  0
  7  2  1  0  0  0  0
  9 12  1  0  0  0  0
 11  6  1  0  0  0  0
 13  9  1  0  0  0  0
 14  9  1  0  0  0  0
M  END
$$$$
