14
butane_opt
C  -3.948788   0.272520  -0.004149
C  -2.702706  -0.626082   0.047663
H  -4.844301  -0.315504   0.126084
H  -4.070475   0.994732  -0.961146
H  -3.948219   0.849264   0.800553
C  -1.392608   0.180153   0.031616
H  -2.691038  -1.270582  -0.763212
H  -2.704343  -1.296193   0.959332
C  -0.157477  -0.694852   0.018791
H  -1.362598   0.897819   0.927546
H  -1.418530   0.764555  -0.800511
H  -0.143246  -1.198361   0.864002
H   0.778976  -0.079878   0.010191
H  -0.195152  -1.392900  -0.871705
