14
butane_opt
C  -3.957999   0.274289   0.007517
C  -2.688945  -0.625164   0.060044
H  -4.875081  -0.346667   0.042481
H  -3.998549   0.928301  -0.931127
H  -3.992315   0.915948   0.851949
C  -1.396210   0.181754   0.019225
H  -2.713498  -1.293242  -0.809330
H  -2.736915  -1.283336   0.967050
C  -0.158256  -0.687178   0.008849
H  -1.366840   0.857745   0.877634
H  -1.376638   0.788339  -0.868440
H  -0.186196  -1.266776   0.885523
H   0.748590  -0.078409   0.130592
H  -0.106299  -1.415669  -0.860046
