butane_opt
 OpenBabel08242015413D

 14 13  0  0  0  0  0  0  0  0999 V2000
   -3.9465    0.2487    0.0478 C   0  0  0  0  0  0  0  0  0  0  0  0
   -2.7028   -0.6050    0.0004 C   0  0  0  0  0  0  0  0  0  0  0  0
   -4.8396   -0.3314    0.1648 H   0  0  0  0  0  0  0  0  0  0  0  0
   -4.0252    0.8953   -0.8726 H   0  0  0  0  0  0  0  0  0  0  0  0
   -3.8772    0.8712    0.8799 H   0  0  0  0  0  0  0  0  0  0  0  0
   -1.4137    0.2107   -0.0066 C   0  0  0  0  0  0  0  0  0  0  0  0
   -2.7622   -1.3551   -0.9295 H   0  0  0  0  0  0  0  0  0  0  0  0
   -2.6566   -1.1565    0.8139 H   0  0  0  0  0  0  0  0  0  0  0  0
   -0.1554   -0.7075    0.0618 C   0  0  0  0  0  0  0  0  0  0  0  0
   -1.3920    0.8265    0.8151 H   0  0  0  0  0  0  0  0  0  0  0  0
   -1.3863    0.8396   -0.9217 H   0  0  0  0  0  0  0  0  0  0  0  0
   -0.1421   -1.3748    1.0254 H   0  0  0  0  0  0  0  0  0  0  0  0
    0.7292   -0.1311   -0.0124 H   0  0  0  0  0  0  0  0  0  0  0  0
   -0.0500   -1.3154   -0.7652 H   0  0  0  0  0  0  0  0  0  0  0  0
  1  3  1  0  0  0  0
  1  5  1  0  0  0  0
  2  1  1  0  0  0  0
  2  8  1  0  0  0  0
  4  1  1  0  0  0  0
  6  2  1  0  0  0  0
  6  9  1  0  0  0  0
  6 10  1  0  0  0  0
  7  2  1  0  0  0  0
  9 12  1  0  0  0  0
 11  6  1  0  0  0  0
 13  9  1  0  0  0  0
 14  9  1  0  0  0  0
M  END
$$$$
