butane_opt
 OpenBabel08242015413D

 14 13  0  0  0  0  0  0  0  0999 V2000
   -3.9536    0.2733    0.0404 C   0  0  0  0  0  0  0  0  0  0  0  0
   -2.6984   -0.6340    0.0074 C   0  0  0  0  0  0  0  0  0  0  0  0
   -4.8339   -0.2583    0.1126 H   0  0  0  0  0  0  0  0  0  0  0  0
   -4.0576    0.9684   -0.8814 H   0  0  0  0  0  0  0  0  0  0  0  0
   -3.9663    0.8620    0.8582 H   0  0  0  0  0  0  0  0  0  0  0  0
   -1.4033    0.1796   -0.0011 C   0  0  0  0  0  0  0  0  0  0  0  0
   -2.7547   -1.3331   -0.8525 H   0  0  0  0  0  0  0  0  0  0  0  0
   -2.6764   -1.2429    0.8763 H   0  0  0  0  0  0  0  0  0  0  0  0
   -0.1570   -0.6835    0.0447 C   0  0  0  0  0  0  0  0  0  0  0  0
   -1.4002    0.8826    0.8586 H   0  0  0  0  0  0  0  0  0  0  0  0
   -1.3125    0.7471   -0.8583 H   0  0  0  0  0  0  0  0  0  0  0  0
   -0.1412   -1.3393    0.9601 H   0  0  0  0  0  0  0  0  0  0  0  0
    0.7579   -0.0807    0.0098 H   0  0  0  0  0  0  0  0  0  0  0  0
   -0.0980   -1.2888   -0.7528 H   0  0  0  0  0  0  0  0  0  0  0  0
  1  3  1  0  0  0  0
  1  5  1  0  0  0  0
  2  1  1  0  0  0  0
  2  8  1  0  0  0  0
  4  1  1  0  0  0  0
  6  2  1  0  0  0  0
  6  9  1  0  0  0  0
  6 10  1  0  0  0  0
  7  2  1  0  0  0  0
  9 12  1  0  0  0  0
 11  6  1  0  0  0  0
 13  9  1  0  0  0  0
 14  9  1  0  0  0  0
M  END
$$$$
