14
butane_opt
C  -3.949102   0.270024  -0.008088
C  -2.701961  -0.628434   0.081955
H  -4.855076  -0.314900   0.066144
H  -3.996971   0.933881  -0.946946
H  -4.039170   0.889839   0.806649
C  -1.396959   0.187639   0.018482
H  -2.708174  -1.317419  -0.780126
H  -2.683417  -1.266390   0.995147
C  -0.154585  -0.694745   0.006888
H  -1.342172   0.864309   0.891831
H  -1.433349   0.839811  -0.870265
H  -0.190487  -1.138907   0.808566
H   0.773672  -0.098528   0.185047
H  -0.108668  -1.480975  -0.922815
