14
butane_opt
C  -3.942205   0.273188   0.001262
C  -2.690328  -0.620318   0.061866
H  -4.864107  -0.344844  -0.065450
H  -3.878476   0.838748  -0.859155
H  -4.049733   1.020156   0.897557
C  -1.401115   0.161314   0.020909
H  -2.666890  -1.239760  -0.772676
H  -2.703791  -1.327165   1.003936
C  -0.178616  -0.679038   0.016877
H  -1.386621   0.853845   0.881920
H  -1.416413   0.818458  -0.878930
H  -0.098892  -1.241979   0.864434
H   0.747001  -0.090203   0.001666
H  -0.162796  -1.380596  -0.837012
