butane_opt
 OpenBabel08242015413D

 14 13  0  0  0  0  0  0  0  0999 V2000
   -3.9415    0.2747    0.0286 C   0  0  0  0  0  0  0  0  0  0  0  0
   -2.6932   -0.6172    0.0211 C   0  0  0  0  0  0  0  0  0  0  0  0
   -4.8992   -0.3418    0.1801 H   0  0  0  0  0  0  0  0  0  0  0  0
   -4.0195    0.9863   -0.9403 H   0  0  0  0  0  0  0  0  0  0  0  0
   -3.8849    0.8611    0.8474 H   0  0  0  0  0  0  0  0  0  0  0  0
   -1.4041    0.1681    0.0041 C   0  0  0  0  0  0  0  0  0  0  0  0
   -2.7359   -1.3347   -0.8595 H   0  0  0  0  0  0  0  0  0  0  0  0
   -2.7015   -1.2299    0.8911 H   0  0  0  0  0  0  0  0  0  0  0  0
   -0.1650   -0.6832    0.0452 C   0  0  0  0  0  0  0  0  0  0  0  0
   -1.4224    0.8468    0.8830 H   0  0  0  0  0  0  0  0  0  0  0  0
   -1.3106    0.7969   -0.8980 H   0  0  0  0  0  0  0  0  0  0  0  0
   -0.1550   -1.2899    0.9232 H   0  0  0  0  0  0  0  0  0  0  0  0
    0.7318   -0.0993    0.0744 H   0  0  0  0  0  0  0  0  0  0  0  0
   -0.1814   -1.3741   -0.8614 H   0  0  0  0  0  0  0  0  0  0  0  0
  1  3  1  0  0  0  0
  1  5  1  0  0  0  0
  2  1  1  0  0  0  0
  2  8  1  0  0  0  0
  4  1  1  0  0  0  0
  6  2  1  0  0  0  0
  6  9  1  0  0  0  0
  6 10  1  0  0  0  0
  7  2  1  0  0  0  0
  9 13  1  0  0  0  0
  9 12  1  0  0  0  0
 11  6  1  0  0  0  0
 14  9  1  0  0  0  0
M  END
$$$$
