14
butane_opt
C  -3.960411   0.268034   0.050375
C  -2.693221  -0.622802  -0.000129
H  -4.863369  -0.323243   0.137847
H  -4.040992   0.942742  -0.867290
H  -3.936967   0.910197   0.897753
C  -1.397703   0.176223  -0.012218
H  -2.724655  -1.352943  -0.905824
H  -2.718976  -1.184187   0.836498
C  -0.152794  -0.688773   0.053566
H  -1.385766   0.865451   0.865419
H  -1.388385   0.839086  -0.940416
H  -0.181116  -1.376745   1.030561
H   0.799565  -0.083158   0.043262
H  -0.135692  -1.295672  -0.747793
