14
butane_opt
C  -3.946013   0.257928   0.055568
C  -2.713439  -0.603150   0.020172
H  -4.870869  -0.352750   0.030782
H  -3.947852   0.857677  -0.850434
H  -3.900184   0.896986   0.932094
C  -1.409728   0.201656  -0.041819
H  -2.766052  -1.318133  -0.878081
H  -2.685221  -1.219509   0.898489
C  -0.150946  -0.703929   0.064576
H  -1.402811   0.851529   0.797537
H  -1.337791   0.865677  -0.963920
H  -0.180881  -1.280441   0.951186
H   0.735542  -0.129160   0.168449
H  -0.026852  -1.479147  -0.841122
