butane_opt
 OpenBabel08242015413D

 14 13  0  0  0  0  0  0  0  0999 V2000
   -3.9580    0.2723    0.0411 C   0  0  0  0  0  0  0  0  0  0  0  0
   -2.7047   -0.6314    0.0228 C   0  0  0  0  0  0  0  0  0  0  0  0
   -4.8306   -0.2998   -0.1187 H   0  0  0  0  0  0  0  0  0  0  0  0
   -3.9456    0.7823   -0.7929 H   0  0  0  0  0  0  0  0  0  0  0  0
   -4.0037    1.0578    0.9879 H   0  0  0  0  0  0  0  0  0  0  0  0
   -1.4021    0.1751   -0.0094 C   0  0  0  0  0  0  0  0  0  0  0  0
   -2.7139   -1.2851   -0.8194 H   0  0  0  0  0  0  0  0  0  0  0  0
   -2.6716   -1.2389    0.9044 H   0  0  0  0  0  0  0  0  0  0  0  0
   -0.1484   -0.6856    0.0576 C   0  0  0  0  0  0  0  0  0  0  0  0
   -1.4188    0.7966    0.7748 H   0  0  0  0  0  0  0  0  0  0  0  0
   -1.3820    0.8618   -0.9650 H   0  0  0  0  0  0  0  0  0  0  0  0
   -0.1217   -1.3423    0.9507 H   0  0  0  0  0  0  0  0  0  0  0  0
    0.7769   -0.0469   -0.0313 H   0  0  0  0  0  0  0  0  0  0  0  0
   -0.1624   -1.3182   -0.7838 H   0  0  0  0  0  0  0  0  0  0  0  0
  1  5  1  0  0  0  0
  2  1  1  0  0  0  0
  2  8  1  0  0  0  0
  3  1  1  0  0  0  0
  4  1  1  0  0  0  0
  6  2  1  0  0  0  0
  6  9  1  0  0  0  0
  6 10  1  0  0  0  0
  7  2  1  0  0  0  0
  9 12  1  0  0  0  0
 11  6  1  0  0  0  0
 13  9  1  0  0  0  0
 14  9  1  0  0  0  0
M  END
$$$$
