butane_opt
 OpenBabel08242015413D

 14 13  0  0  0  0  0  0  0  0999 V2000
   -3.9290    0.2697   -0.0062 C   0  0  0  0  0  0  0  0  0  0  0  0
   -2.6989   -0.6209    0.0524 C   0  0  0  0  0  0  0  0  0  0  0  0
   -4.8114   -0.3240    0.0687 H   0  0  0  0  0  0  0  0  0  0  0  0
   -3.9659    0.9242   -0.9201 H   0  0  0  0  0  0  0  0  0  0  0  0
   -4.0148    0.9153    0.8421 H   0  0  0  0  0  0  0  0  0  0  0  0
   -1.4094    0.1734    0.0410 C   0  0  0  0  0  0  0  0  0  0  0  0
   -2.6699   -1.3188   -0.7892 H   0  0  0  0  0  0  0  0  0  0  0  0
   -2.7110   -1.2502    0.9498 H   0  0  0  0  0  0  0  0  0  0  0  0
   -0.1691   -0.6876    0.0174 C   0  0  0  0  0  0  0  0  0  0  0  0
   -1.3440    0.8674    0.9204 H   0  0  0  0  0  0  0  0  0  0  0  0
   -1.4393    0.8069   -0.8665 H   0  0  0  0  0  0  0  0  0  0  0  0
   -0.1046   -1.2842    0.8811 H   0  0  0  0  0  0  0  0  0  0  0  0
    0.7410   -0.0813   -0.0671 H   0  0  0  0  0  0  0  0  0  0  0  0
   -0.2271   -1.3338   -0.8306 H   0  0  0  0  0  0  0  0  0  0  0  0
  1  2  1  0  0  0  0
  1  3  1  0  0  0  0
  1  5  1  0  0  0  0
  2  8  1  0  0  0  0
  4  1  1  0  0  0  0
  6  2  1  0  0  0  0
  6 10  1  0  0  0  0
  7  2  1  0  0  0  0
  9  6  1  0  0  0  0
  9 12  1  0  0  0  0
 11  6  1  0  0  0  0
 13  9  1  0  0  0  0
 14  9  1  0  0  0  0
M  END
$$$$
