butane_opt
 OpenBabel08242015413D

 14 13  0  0  0  0  0  0  0  0999 V2000
   -3.9393    0.2524    0.0430 C   0  0  0  0  0  0  0  0  0  0  0  0
   -2.7042   -0.5918    0.0064 C   0  0  0  0  0  0  0  0  0  0  0  0
   -4.8691   -0.3665    0.0072 H   0  0  0  0  0  0  0  0  0  0  0  0
   -3.9085    0.8166   -0.8441 H   0  0  0  0  0  0  0  0  0  0  0  0
   -3.9157    0.9664    0.9153 H   0  0  0  0  0  0  0  0  0  0  0  0
   -1.4153    0.1889   -0.0051 C   0  0  0  0  0  0  0  0  0  0  0  0
   -2.7409   -1.2848   -0.8449 H   0  0  0  0  0  0  0  0  0  0  0  0
   -2.6395   -1.2139    0.8610 H   0  0  0  0  0  0  0  0  0  0  0  0
   -0.1632   -0.6963    0.0499 C   0  0  0  0  0  0  0  0  0  0  0  0
   -1.4103    0.8678    0.8690 H   0  0  0  0  0  0  0  0  0  0  0  0
   -1.3799    0.7752   -0.8569 H   0  0  0  0  0  0  0  0  0  0  0  0
   -0.0902   -1.4924    1.0440 H   0  0  0  0  0  0  0  0  0  0  0  0
    0.7479   -0.1148   -0.0982 H   0  0  0  0  0  0  0  0  0  0  0  0
   -0.1568   -1.2580   -0.7272 H   0  0  0  0  0  0  0  0  0  0  0  0
  1  5  1  0  0  0  0
  2  1  1  0  0  0  0
  2  8  1  0  0  0  0
  3  1  1  0  0  0  0
  4  1  1  0  0  0  0
  6  2  1  0  0  0  0
  6  9  1  0  0  0  0
  6 10  1  0  0  0  0
  7  2  1  0  0  0  0
  9 12  1  0  0  0  0
 11  6  1  0  0  0  0
 13  9  1  0  0  0  0
 14  9  1  0  0  0  0
M  END
$$$$
