butane_opt
 OpenBabel08242015413D

 14 13  0  0  0  0  0  0  0  0999 V2000
   -3.9271    0.2540    0.0491 C   0  0  0  0  0  0  0  0  0  0  0  0
   -2.7088   -0.5937   -0.0112 C   0  0  0  0  0  0  0  0  0  0  0  0
   -4.8555   -0.3686    0.1568 H   0  0  0  0  0  0  0  0  0  0  0  0
   -4.0332    0.8452   -0.8369 H   0  0  0  0  0  0  0  0  0  0  0  0
   -3.8533    0.9008    0.9192 H   0  0  0  0  0  0  0  0  0  0  0  0
   -1.4203    0.1969   -0.0234 C   0  0  0  0  0  0  0  0  0  0  0  0
   -2.7524   -1.3134   -0.8703 H   0  0  0  0  0  0  0  0  0  0  0  0
   -2.6476   -1.2235    0.8903 H   0  0  0  0  0  0  0  0  0  0  0  0
   -0.1562   -0.7061    0.0719 C   0  0  0  0  0  0  0  0  0  0  0  0
   -1.4761    0.8347    0.8130 H   0  0  0  0  0  0  0  0  0  0  0  0
   -1.3826    0.8262   -0.9294 H   0  0  0  0  0  0  0  0  0  0  0  0
   -0.1506   -1.3127    0.9734 H   0  0  0  0  0  0  0  0  0  0  0  0
    0.7671   -0.1020    0.0319 H   0  0  0  0  0  0  0  0  0  0  0  0
   -0.0889   -1.3629   -0.7541 H   0  0  0  0  0  0  0  0  0  0  0  0
  1  3  1  0  0  0  0
  1  5  1  0  0  0  0
  2  1  1  0  0  0  0
  2  8  1  0  0  0  0
  4  1  1  0  0  0  0
  6  2  1  0  0  0  0
  6  9  1  0  0  0  0
  6 10  1  0  0  0  0
  7  2  1  0  0  0  0
  9 12  1  0  0  0  0
 11  6  1  0  0  0  0
 13  9  1  0  0  0  0
 14  9  1  0  0  0  0
M  END
$$$$
