14
butane_opt
C  -3.945597   0.275543  -0.013847
C  -2.687425  -0.633247   0.056472
H  -4.842839  -0.321255   0.056926
H  -3.953143   0.932501  -0.930871
H  -3.919084   0.888702   0.808060
C  -1.405197   0.183266   0.058168
H  -2.625300  -1.255624  -0.756548
H  -2.756099  -1.294551   0.978180
C  -0.175613  -0.680383   0.001641
H  -1.369281   0.880214   0.926852
H  -1.431661   0.751705  -0.816593
H  -0.116721  -1.338146   0.911217
H   0.737134  -0.084684  -0.073403
H  -0.193833  -1.364934  -0.893805
