14
butane_opt
C  -3.940698   0.275776   0.017460
C  -2.691576  -0.625472   0.050292
H  -4.843548  -0.309787  -0.025021
H  -3.879064   0.846946  -0.852520
H  -3.957218   0.959765   0.865826
C  -1.403780   0.180207   0.000611
H  -2.719869  -1.280926  -0.804926
H  -2.726608  -1.293472   0.951248
C  -0.176257  -0.688163   0.028358
H  -1.386606   0.892513   0.864817
H  -1.380152   0.765020  -0.842895
H  -0.132817  -1.307319   0.923443
H   0.731500  -0.099079   0.029386
H  -0.190676  -1.351050  -0.823146
