butane_opt
 OpenBabel08242015413D

 14 13  0  0  0  0  0  0  0  0999 V2000
   -3.9540    0.2809    0.0311 C   0  0  0  0  0  0  0  0  0  0  0  0
   -2.6866   -0.6258    0.0188 C   0  0  0  0  0  0  0  0  0  0  0  0
   -4.8658   -0.3202    0.0734 H   0  0  0  0  0  0  0  0  0  0  0  0
   -3.9553    0.8446   -0.8283 H   0  0  0  0  0  0  0  0  0  0  0  0
   -3.9675    0.9643    0.8901 H   0  0  0  0  0  0  0  0  0  0  0  0
   -1.3942    0.1702    0.0034 C   0  0  0  0  0  0  0  0  0  0  0  0
   -2.7160   -1.3940   -0.9065 H   0  0  0  0  0  0  0  0  0  0  0  0
   -2.7137   -1.1804    0.8607 H   0  0  0  0  0  0  0  0  0  0  0  0
   -0.1755   -0.6883    0.0466 C   0  0  0  0  0  0  0  0  0  0  0  0
   -1.3476    0.8421    0.8548 H   0  0  0  0  0  0  0  0  0  0  0  0
   -1.3806    0.8321   -0.8815 H   0  0  0  0  0  0  0  0  0  0  0  0
   -0.1238   -1.4210    1.0329 H   0  0  0  0  0  0  0  0  0  0  0  0
    0.7582   -0.0462   -0.1065 H   0  0  0  0  0  0  0  0  0  0  0  0
   -0.1952   -1.2320   -0.7263 H   0  0  0  0  0  0  0  0  0  0  0  0
  1  3  1  0  0  0  0
  1  5  1  0  0  0  0
  2  1  1  0  0  0  0
  2  8  1  0  0  0  0
  4  1  1  0  0  0  0
  6  2  1  0  0  0  0
  6  9  1  0  0  0  0
  6 10  1  0  0  0  0
  7  2  1  0  0  0  0
  9 12  1  0  0  0  0
 11  6  1  0  0  0  0
 13  9  1  0  0  0  0
 14  9  1  0  0  0  0
M  END
$$$$
