butane_opt
 OpenBabel08242015413D

 14 13  0  0  0  0  0  0  0  0999 V2000
   -3.9528    0.2651   -0.0135 C   0  0  0  0  0  0  0  0  0  0  0  0
   -2.7132   -0.6122    0.0675 C   0  0  0  0  0  0  0  0  0  0  0  0
   -4.8964   -0.3434    0.0119 H   0  0  0  0  0  0  0  0  0  0  0  0
   -3.9197    0.9247   -0.9556 H   0  0  0  0  0  0  0  0  0  0  0  0
   -3.9259    0.8620    0.8068 H   0  0  0  0  0  0  0  0  0  0  0  0
   -1.3952    0.1906    0.0529 C   0  0  0  0  0  0  0  0  0  0  0  0
   -2.6901   -1.2859   -0.7814 H   0  0  0  0  0  0  0  0  0  0  0  0
   -2.7638   -1.2430    0.9615 H   0  0  0  0  0  0  0  0  0  0  0  0
   -0.1518   -0.7010    0.0045 C   0  0  0  0  0  0  0  0  0  0  0  0
   -1.3975    0.9166    0.9610 H   0  0  0  0  0  0  0  0  0  0  0  0
   -1.4040    0.8006   -0.8198 H   0  0  0  0  0  0  0  0  0  0  0  0
   -0.0134   -1.3283    0.9006 H   0  0  0  0  0  0  0  0  0  0  0  0
    0.7445   -0.1251   -0.1215 H   0  0  0  0  0  0  0  0  0  0  0  0
   -0.2064   -1.3604   -0.8682 H   0  0  0  0  0  0  0  0  0  0  0  0
  1  3  1  0  0  0  0
  1  2  1  0  0  0  0
  1  5  1  0  0  0  0
  2  8  1  0  0  0  0
  4  1  1  0  0  0  0
  6  2  1  0  0  0  0
  6 10  1  0  0  0  0
  7  2  1  0  0  0  0
  9  6  1  0  0  0  0
  9 12  1  0  0  0  0
 11  6  1  0  0  0  0
 13  9  1  0  0  0  0
 14  9  1  0  0  0  0
M  END
$$$$
