butane_opt
 OpenBabel08242015413D

 14 13  0  0  0  0  0  0  0  0999 V2000
   -3.9517    0.2748    0.0520 C   0  0  0  0  0  0  0  0  0  0  0  0
   -2.6992   -0.6365    0.0010 C   0  0  0  0  0  0  0  0  0  0  0  0
   -4.8378   -0.3274    0.0706 H   0  0  0  0  0  0  0  0  0  0  0  0
   -4.0522    0.8551   -0.8022 H   0  0  0  0  0  0  0  0  0  0  0  0
   -3.9817    1.0016    0.9526 H   0  0  0  0  0  0  0  0  0  0  0  0
   -1.3922    0.1894   -0.0368 C   0  0  0  0  0  0  0  0  0  0  0  0
   -2.8013   -1.2540   -0.8226 H   0  0  0  0  0  0  0  0  0  0  0  0
   -2.6791   -1.2948    0.9013 H   0  0  0  0  0  0  0  0  0  0  0  0
   -0.1566   -0.6939    0.0654 C   0  0  0  0  0  0  0  0  0  0  0  0
   -1.4100    0.8342    0.7685 H   0  0  0  0  0  0  0  0  0  0  0  0
   -1.3306    0.8469   -0.9384 H   0  0  0  0  0  0  0  0  0  0  0  0
   -0.1989   -1.2474    0.9505 H   0  0  0  0  0  0  0  0  0  0  0  0
    0.7579   -0.0935    0.1753 H   0  0  0  0  0  0  0  0  0  0  0  0
   -0.0885   -1.4023   -0.7976 H   0  0  0  0  0  0  0  0  0  0  0  0
  1  3  1  0  0  0  0
  1  5  1  0  0  0  0
  2  1  1  0  0  0  0
  2  8  1  0  0  0  0
  4  1  1  0  0  0  0
  6  2  1  0  0  0  0
  6  9  1  0  0  0  0
  6 10  1  0  0  0  0
  7  2  1  0  0  0  0
  9 13  1  0  0  0  0
  9 12  1  0  0  0  0
 11  6  1  0  0  0  0
 14  9  1  0  0  0  0
M  END
$$$$
