butane_opt
 OpenBabel08242015413D

 14 13  0  0  0  0  0  0  0  0999 V2000
   -3.9311    0.2508    0.0367 C   0  0  0  0  0  0  0  0  0  0  0  0
   -2.7123   -0.5932    0.0319 C   0  0  0  0  0  0  0  0  0  0  0  0
   -4.8384   -0.3520    0.0974 H   0  0  0  0  0  0  0  0  0  0  0  0
   -3.9621    0.8737   -0.8528 H   0  0  0  0  0  0  0  0  0  0  0  0
   -3.9291    0.8933    0.8770 H   0  0  0  0  0  0  0  0  0  0  0  0
   -1.4072    0.1966   -0.0228 C   0  0  0  0  0  0  0  0  0  0  0  0
   -2.7128   -1.3055   -0.8564 H   0  0  0  0  0  0  0  0  0  0  0  0
   -2.7103   -1.1954    0.9145 H   0  0  0  0  0  0  0  0  0  0  0  0
   -0.1553   -0.7052    0.0536 C   0  0  0  0  0  0  0  0  0  0  0  0
   -1.4120    0.8583    0.7901 H   0  0  0  0  0  0  0  0  0  0  0  0
   -1.4102    0.8107   -0.9154 H   0  0  0  0  0  0  0  0  0  0  0  0
   -0.2420   -1.2655    0.8947 H   0  0  0  0  0  0  0  0  0  0  0  0
    0.7478   -0.1393    0.1343 H   0  0  0  0  0  0  0  0  0  0  0  0
   -0.0715   -1.4428   -0.8412 H   0  0  0  0  0  0  0  0  0  0  0  0
  1  3  1  0  0  0  0
  1  5  1  0  0  0  0
  2  1  1  0  0  0  0
  2  8  1  0  0  0  0
  4  1  1  0  0  0  0
  6  2  1  0  0  0  0
  6  9  1  0  0  0  0
  6 10  1  0  0  0  0
  7  2  1  0  0  0  0
  9 13  1  0  0  0  0
  9 12  1  0  0  0  0
 11  6  1  0  0  0  0
 14  9  1  0  0  0  0
M  END
$$$$
