14
butane_opt
C  -3.946348   0.273443   0.001898
C  -2.685163  -0.619373   0.074506
H  -4.886541  -0.335467  -0.091961
H  -3.825675   0.872017  -0.908091
H  -4.043296   0.969632   0.883423
C  -1.400939   0.171979   0.026768
H  -2.700252  -1.298145  -0.755099
H  -2.726022  -1.274619   0.972749
C  -0.177621  -0.687938   0.007619
H  -1.375515   0.867937   0.888697
H  -1.383304   0.817919  -0.895798
H  -0.161685  -1.258305   0.878793
H   0.762783  -0.079744  -0.001066
H  -0.169072  -1.407354  -0.864085
