butane_opt
 OpenBabel08242015413D

 14 13  0  0  0  0  0  0  0  0999 V2000
   -3.9575    0.2783   -0.0086 C   0  0  0  0  0  0  0  0  0  0  0  0
   -2.7049   -0.6311    0.0804 C   0  0  0  0  0  0  0  0  0  0  0  0
   -4.8384   -0.3244   -0.0934 H   0  0  0  0  0  0  0  0  0  0  0  0
   -3.9246    0.8505   -0.8642 H   0  0  0  0  0  0  0  0  0  0  0  0
   -4.0461    1.0214    0.9155 H   0  0  0  0  0  0  0  0  0  0  0  0
   -1.3999    0.1699    0.0227 C   0  0  0  0  0  0  0  0  0  0  0  0
   -2.7265   -1.2807   -0.7751 H   0  0  0  0  0  0  0  0  0  0  0  0
   -2.7289   -1.2653    0.9771 H   0  0  0  0  0  0  0  0  0  0  0  0
   -0.1513   -0.6881    0.0068 C   0  0  0  0  0  0  0  0  0  0  0  0
   -1.3200    0.8475    0.8873 H   0  0  0  0  0  0  0  0  0  0  0  0
   -1.3993    0.8378   -0.8892 H   0  0  0  0  0  0  0  0  0  0  0  0
   -0.1286   -1.2842    0.8901 H   0  0  0  0  0  0  0  0  0  0  0  0
    0.8066   -0.0444    0.0478 H   0  0  0  0  0  0  0  0  0  0  0  0
   -0.1619   -1.3734   -0.8646 H   0  0  0  0  0  0  0  0  0  0  0  0
  1  2  1  0  0  0  0
  1  5  1  0  0  0  0
  2  8  1  0  0  0  0
  3  1  1  0  0  0  0
  4  1  1  0  0  0  0
  6  2  1  0  0  0  0
  6 10  1  0  0  0  0
  7  2  1  0  0  0  0
  9  6  1  0  0  0  0
  9 13  1  0  0  0  0
  9 12  1  0  0  0  0
 11  6  1  0  0  0  0
 14  9  1  0  0  0  0
M  END
$$$$
