14
butane_opt
C  -3.960493   0.276519   0.049918
C  -2.696630  -0.633168   0.018669
H  -4.859651  -0.319695   0.057341
H  -3.994501   0.891482  -0.829950
H  -3.960940   0.972823   0.922254
C  -1.402723   0.182593  -0.039815
H  -2.750382  -1.319075  -0.852747
H  -2.642866  -1.298244   0.917083
C  -0.160339  -0.687610   0.055437
H  -1.391934   0.837805   0.814008
H  -1.306766   0.807630  -0.944096
H  -0.196014  -1.231314   0.944474
H   0.754696  -0.070089   0.213217
H  -0.040461  -1.399723  -0.819455
