butane_opt
 OpenBabel08242015413D

 14 13  0  0  0  0  0  0  0  0999 V2000
   -3.9277    0.2597    0.0353 C   0  0  0  0  0  0  0  0  0  0  0  0
   -2.7075   -0.5983    0.0332 C   0  0  0  0  0  0  0  0  0  0  0  0
   -4.8655   -0.3626   -0.0682 H   0  0  0  0  0  0  0  0  0  0  0  0
   -3.8929    0.7480   -0.7753 H   0  0  0  0  0  0  0  0  0  0  0  0
   -3.9701    0.9789    0.9460 H   0  0  0  0  0  0  0  0  0  0  0  0
   -1.4154    0.1926   -0.0209 C   0  0  0  0  0  0  0  0  0  0  0  0
   -2.7152   -1.2900   -0.8194 H   0  0  0  0  0  0  0  0  0  0  0  0
   -2.7087   -1.2082    0.9087 H   0  0  0  0  0  0  0  0  0  0  0  0
   -0.1684   -0.7028    0.0539 C   0  0  0  0  0  0  0  0  0  0  0  0
   -1.4080    0.8146    0.7944 H   0  0  0  0  0  0  0  0  0  0  0  0
   -1.3312    0.8664   -0.9181 H   0  0  0  0  0  0  0  0  0  0  0  0
   -0.0773   -1.3418    0.9359 H   0  0  0  0  0  0  0  0  0  0  0  0
    0.7260   -0.1325    0.0311 H   0  0  0  0  0  0  0  0  0  0  0  0
   -0.1499   -1.3678   -0.8014 H   0  0  0  0  0  0  0  0  0  0  0  0
  1  5  1  0  0  0  0
  2  1  1  0  0  0  0
  2  8  1  0  0  0  0
  3  1  1  0  0  0  0
  4  1  1  0  0  0  0
  6  2  1  0  0  0  0
  6  9  1  0  0  0  0
  6 10  1  0  0  0  0
  7  2  1  0  0  0  0
  9 12  1  0  0  0  0
 11  6  1  0  0  0  0
 13  9  1  0  0  0  0
 14  9  1  0  0  0  0
M  END
$$$$
