butane_opt
 OpenBabel08242015413D

 14 13  0  0  0  0  0  0  0  0999 V2000
   -3.9493    0.2583    0.0385 C   0  0  0  0  0  0  0  0  0  0  0  0
   -2.7105   -0.6075    0.0204 C   0  0  0  0  0  0  0  0  0  0  0  0
   -4.8890   -0.3590   -0.0326 H   0  0  0  0  0  0  0  0  0  0  0  0
   -3.9312    0.8352   -0.8360 H   0  0  0  0  0  0  0  0  0  0  0  0
   -3.9447    0.9568    0.9557 H   0  0  0  0  0  0  0  0  0  0  0  0
   -1.4040    0.1966   -0.0035 C   0  0  0  0  0  0  0  0  0  0  0  0
   -2.7484   -1.3587   -0.8921 H   0  0  0  0  0  0  0  0  0  0  0  0
   -2.6961   -1.1859    0.8895 H   0  0  0  0  0  0  0  0  0  0  0  0
   -0.1442   -0.7020    0.0488 C   0  0  0  0  0  0  0  0  0  0  0  0
   -1.4486    0.8889    0.8395 H   0  0  0  0  0  0  0  0  0  0  0  0
   -1.3896    0.8329   -0.9198 H   0  0  0  0  0  0  0  0  0  0  0  0
   -0.0920   -1.4282    1.0141 H   0  0  0  0  0  0  0  0  0  0  0  0
    0.7520   -0.1417   -0.0995 H   0  0  0  0  0  0  0  0  0  0  0  0
   -0.1379   -1.2569   -0.7205 H   0  0  0  0  0  0  0  0  0  0  0  0
  1  5  1  0  0  0  0
  2  1  1  0  0  0  0
  2  8  1  0  0  0  0
  3  1  1  0  0  0  0
  4  1  1  0  0  0  0
  6  2  1  0  0  0  0
  6  9  1  0  0  0  0
  6 10  1  0  0  0  0
  7  2  1  0  0  0  0
  9 12  1  0  0  0  0
 11  6  1  0  0  0  0
 13  9  1  0  0  0  0
 14  9  1  0  0  0  0
M  END
$$$$
