14
butane_opt
C  -3.954828   0.263745   0.005043
C  -2.700002  -0.613121   0.062532
H  -4.906234  -0.355065  -0.041686
H  -3.883848   0.821188  -0.868778
H  -4.011030   0.981484   0.870160
C  -1.407658   0.191445   0.016510
H  -2.699525  -1.288929  -0.804843
H  -2.760590  -1.275462   1.000936
C  -0.149758  -0.696207   0.023806
H  -1.410026   0.857559   0.866844
H  -1.390210   0.837961  -0.874649
H  -0.047096  -1.290669   0.896339
H   0.771326  -0.106311  -0.008556
H  -0.143864  -1.408383  -0.884737
