butane_opt
 OpenBabel08242015413D

 14 13  0  0  0  0  0  0  0  0999 V2000
   -3.9506    0.2792    0.0456 C   0  0  0  0  0  0  0  0  0  0  0  0
   -2.6839   -0.6347    0.0017 C   0  0  0  0  0  0  0  0  0  0  0  0
   -4.8769   -0.3153    0.0640 H   0  0  0  0  0  0  0  0  0  0  0  0
   -3.9723    0.8713   -0.8564 H   0  0  0  0  0  0  0  0  0  0  0  0
   -3.9126    0.9598    0.9337 H   0  0  0  0  0  0  0  0  0  0  0  0
   -1.4079    0.1675   -0.0129 C   0  0  0  0  0  0  0  0  0  0  0  0
   -2.7475   -1.3210   -0.8696 H   0  0  0  0  0  0  0  0  0  0  0  0
   -2.6393   -1.1969    0.8414 H   0  0  0  0  0  0  0  0  0  0  0  0
   -0.1706   -0.6771    0.0613 C   0  0  0  0  0  0  0  0  0  0  0  0
   -1.4041    0.8705    0.8619 H   0  0  0  0  0  0  0  0  0  0  0  0
   -1.3716    0.7837   -0.8793 H   0  0  0  0  0  0  0  0  0  0  0  0
   -0.1708   -1.4191    1.0211 H   0  0  0  0  0  0  0  0  0  0  0  0
    0.7702   -0.0798   -0.0915 H   0  0  0  0  0  0  0  0  0  0  0  0
   -0.1525   -1.2357   -0.7292 H   0  0  0  0  0  0  0  0  0  0  0  0
  1  3  1  0  0  0  0
  1  5  1  0  0  0  0
  2  1  1  0  0  0  0
  2  8  1  0  0  0  0
  4  1  1  0  0  0  0
  6  2  1  0  0  0  0
  6  9  1  0  0  0  0
  6 10  1  0  0  0  0
  7  2  1  0  0  0  0
  9 12  1  0  0  0  0
 11  6  1  0  0  0  0
 13  9  1  0  0  0  0
 14  9  1  0  0  0  0
M  END
$$$$
