14
butane_opt
C  -3.946815   0.259984   0.043020
C  -2.699895  -0.610525  -0.002580
H  -4.865647  -0.364739   0.069227
H  -3.992883   0.848061  -0.811372
H  -3.922040   0.959862   0.929910
C  -1.401198   0.188337  -0.004268
H  -2.758384  -1.298520  -0.859547
H  -2.698119  -1.152050   0.863543
C  -0.164358  -0.699192   0.058211
H  -1.428737   0.837408   0.815580
H  -1.320201   0.854710  -0.924277
H  -0.064070  -1.423691   1.006973
H   0.744751  -0.127145  -0.041199
H  -0.167443  -1.273264  -0.730173
