14
butane_opt
C  -3.949778   0.281870   0.005230
C  -2.687225  -0.624646   0.041923
H  -4.843783  -0.303665   0.022419
H  -3.951864   0.854816  -0.878280
H  -3.927751   0.940904   0.845780
C  -1.395763   0.167701   0.036683
H  -2.678816  -1.352751  -0.836822
H  -2.735523  -1.239730   0.903364
C  -0.179374  -0.681411   0.024917
H  -1.331322   0.839201   0.898962
H  -1.421202   0.817436  -0.845622
H  -0.076695  -1.400445   0.958971
H   0.754142  -0.071949  -0.137428
H  -0.277632  -1.263926  -0.777791
