butane_opt
 OpenBabel08242015413D

 14 13  0  0  0  0  0  0  0  0999 V2000
   -3.9516    0.2710   -0.0152 C   0  0  0  0  0  0  0  0  0  0  0  0
   -2.7087   -0.6352    0.0851 C   0  0  0  0  0  0  0  0  0  0  0  0
   -4.8172   -0.2846   -0.0918 H   0  0  0  0  0  0  0  0  0  0  0  0
   -3.9656    0.8129   -0.8605 H   0  0  0  0  0  0  0  0  0  0  0  0
   -4.0629    1.0387    0.8941 H   0  0  0  0  0  0  0  0  0  0  0  0
   -1.3920    0.1877    0.0322 C   0  0  0  0  0  0  0  0  0  0  0  0
   -2.6586   -1.2937   -0.7525 H   0  0  0  0  0  0  0  0  0  0  0  0
   -2.7459   -1.2397    0.9781 H   0  0  0  0  0  0  0  0  0  0  0  0
   -0.1541   -0.6895    0.0068 C   0  0  0  0  0  0  0  0  0  0  0  0
   -1.3694    0.8175    0.8693 H   0  0  0  0  0  0  0  0  0  0  0  0
   -1.3718    0.8448   -0.8650 H   0  0  0  0  0  0  0  0  0  0  0  0
   -0.1546   -1.2864    0.8916 H   0  0  0  0  0  0  0  0  0  0  0  0
    0.7883   -0.0852   -0.0544 H   0  0  0  0  0  0  0  0  0  0  0  0
   -0.1854   -1.4032   -0.8742 H   0  0  0  0  0  0  0  0  0  0  0  0
  1  2  1  0  0  0  0
  1  5  1  0  0  0  0
  2  8  1  0  0  0  0
  3  1  1  0  0  0  0
  4  1  1  0  0  0  0
  6  2  1  0  0  0  0
  6 10  1  0  0  0  0
  7  2  1  0  0  0  0
  9  6  1  0  0  0  0
  9 12  1  0  0  0  0
 11  6  1  0  0  0  0
 13  9  1  0  0  0  0
 14  9  1  0  0  0  0
M  END
$$$$
