butane_opt
 OpenBabel08242015413D

 14 13  0  0  0  0  0  0  0  0999 V2000
   -3.9381    0.2704    0.0581 C   0  0  0  0  0  0  0  0  0  0  0  0
   -2.6968   -0.6307   -0.0105 C   0  0  0  0  0  0  0  0  0  0  0  0
   -4.8241   -0.3124    0.1617 H   0  0  0  0  0  0  0  0  0  0  0  0
   -4.0369    1.0197   -0.9040 H   0  0  0  0  0  0  0  0  0  0  0  0
   -3.8835    0.8810    0.8643 H   0  0  0  0  0  0  0  0  0  0  0  0
   -1.4034    0.1789   -0.0174 C   0  0  0  0  0  0  0  0  0  0  0  0
   -2.7109   -1.3369   -0.8815 H   0  0  0  0  0  0  0  0  0  0  0  0
   -2.6678   -1.2310    0.8548 H   0  0  0  0  0  0  0  0  0  0  0  0
   -0.1712   -0.6870    0.0640 C   0  0  0  0  0  0  0  0  0  0  0  0
   -1.4410    0.8643    0.8607 H   0  0  0  0  0  0  0  0  0  0  0  0
   -1.3579    0.7763   -0.8894 H   0  0  0  0  0  0  0  0  0  0  0  0
   -0.2063   -1.3328    0.9791 H   0  0  0  0  0  0  0  0  0  0  0  0
    0.7531   -0.0589    0.0472 H   0  0  0  0  0  0  0  0  0  0  0  0
   -0.1407   -1.3107   -0.7957 H   0  0  0  0  0  0  0  0  0  0  0  0
  1  3  1  0  0  0  0
  1  5  1  0  0  0  0
  2  1  1  0  0  0  0
  2  8  1  0  0  0  0
  4  1  1  0  0  0  0
  6  2  1  0  0  0  0
  6  9  1  0  0  0  0
  6 10  1  0  0  0  0
  7  2  1  0  0  0  0
  9 12  1  0  0  0  0
 11  6  1  0  0  0  0
 13  9  1  0  0  0  0
 14  9  1  0  0  0  0
M  END
$$$$
