butane_opt
 OpenBabel08242015413D

 14 13  0  0  0  0  0  0  0  0999 V2000
   -3.9406    0.2592   -0.0012 C   0  0  0  0  0  0  0  0  0  0  0  0
   -2.7126   -0.6152    0.0479 C   0  0  0  0  0  0  0  0  0  0  0  0
   -4.8597   -0.3481   -0.0080 H   0  0  0  0  0  0  0  0  0  0  0  0
   -3.9511    0.8969   -0.9070 H   0  0  0  0  0  0  0  0  0  0  0  0
   -3.9605    0.9238    0.8475 H   0  0  0  0  0  0  0  0  0  0  0  0
   -1.4053    0.2102    0.0451 C   0  0  0  0  0  0  0  0  0  0  0  0
   -2.7748   -1.2886   -0.7872 H   0  0  0  0  0  0  0  0  0  0  0  0
   -2.7519   -1.2550    0.9355 H   0  0  0  0  0  0  0  0  0  0  0  0
   -0.1422   -0.7039    0.0118 C   0  0  0  0  0  0  0  0  0  0  0  0
   -1.3803    0.9057    0.9004 H   0  0  0  0  0  0  0  0  0  0  0  0
   -1.4161    0.7514   -0.7983 H   0  0  0  0  0  0  0  0  0  0  0  0
   -0.0483   -1.4351    0.9730 H   0  0  0  0  0  0  0  0  0  0  0  0
    0.7152   -0.1298   -0.1405 H   0  0  0  0  0  0  0  0  0  0  0  0
   -0.1866   -1.2944   -0.8162 H   0  0  0  0  0  0  0  0  0  0  0  0
  1  2  1  0  0  0  0
  1  5  1  0  0  0  0
  2  8  1  0  0  0  0
  3  1  1  0  0  0  0
  4  1  1  0  0  0  0
  6  2  1  0  0  0  0
  6 10  1  0  0  0  0
  7  2  1  0  0  0  0
  9  6  1  0  0  0  0
  9 12  1  0  0  0  0
 11  6  1  0  0  0  0
 13  9  1  0  0  0  0
 14  9  1  0  0  0  0
M  END
$$$$
