14
butane_opt
C  -3.947492   0.263323   0.008618
C  -2.711790  -0.620787   0.040125
H  -4.870780  -0.359408   0.141349
H  -3.970377   1.005896  -0.957126
H  -3.945751   0.866329   0.817719
C  -1.394999   0.194501   0.031518
H  -2.717692  -1.280557  -0.816157
H  -2.768291  -1.277845   0.942583
C  -0.153830  -0.700742   0.027646
H  -1.416887   0.906249   0.881372
H  -1.375851   0.835612  -0.854869
H  -0.076564  -1.262446   0.866645
H   0.731392  -0.110852   0.010701
H  -0.115808  -1.434170  -0.901055
