butane_opt
 OpenBabel08242015413D

 14 13  0  0  0  0  0  0  0  0999 V2000
   -3.9376    0.2581    0.0363 C   0  0  0  0  0  0  0  0  0  0  0  0
   -2.7103   -0.5989    0.0176 C   0  0  0  0  0  0  0  0  0  0  0  0
   -4.8494   -0.3505    0.0227 H   0  0  0  0  0  0  0  0  0  0  0  0
   -3.8814    0.7840   -0.8047 H   0  0  0  0  0  0  0  0  0  0  0  0
   -3.9462    0.9504    0.9364 H   0  0  0  0  0  0  0  0  0  0  0  0
   -1.4094    0.1937   -0.0041 C   0  0  0  0  0  0  0  0  0  0  0  0
   -2.7089   -1.3623   -0.8929 H   0  0  0  0  0  0  0  0  0  0  0  0
   -2.6716   -1.1514    0.8477 H   0  0  0  0  0  0  0  0  0  0  0  0
   -0.1619   -0.7070    0.0544 C   0  0  0  0  0  0  0  0  0  0  0  0
   -1.4288    0.8742    0.8244 H   0  0  0  0  0  0  0  0  0  0  0  0
   -1.3729    0.8347   -0.9085 H   0  0  0  0  0  0  0  0  0  0  0  0
   -0.0908   -1.4569    1.0357 H   0  0  0  0  0  0  0  0  0  0  0  0
    0.7490   -0.0999   -0.1334 H   0  0  0  0  0  0  0  0  0  0  0  0
   -0.1932   -1.2439   -0.7158 H   0  0  0  0  0  0  0  0  0  0  0  0
  1  5  1  0  0  0  0
  2  1  1  0  0  0  0
  2  8  1  0  0  0  0
  3  1  1  0  0  0  0
  4  1  1  0  0  0  0
  6  2  1  0  0  0  0
  6  9  1  0  0  0  0
  6 10  1  0  0  0  0
  7  2  1  0  0  0  0
  9 12  1  0  0  0  0
 11  6  1  0  0  0  0
 13  9  1  0  0  0  0
 14  9  1  0  0  0  0
M  END
$$$$
