14
butane_opt
C  -3.938525   0.269101   0.052092
C  -2.703604  -0.614694   0.014897
H  -4.822248  -0.299180   0.020922
H  -3.926350   0.820141  -0.829002
H  -3.966819   1.010147   0.967965
C  -1.404798   0.165737  -0.030755
H  -2.704798  -1.331007  -0.833897
H  -2.697398  -1.213611   0.879812
C  -0.168319  -0.690693   0.059034
H  -1.400426   0.813113   0.797757
H  -1.366947   0.879587  -0.984180
H  -0.234161  -1.283179   0.968627
H   0.776047  -0.056828   0.109064
H  -0.105637  -1.359743  -0.790362
