butane_opt
 OpenBabel08242015413D

 14 13  0  0  0  0  0  0  0  0999 V2000
   -3.9406    0.2686    0.0320 C   0  0  0  0  0  0  0  0  0  0  0  0
   -2.7007   -0.6151    0.0250 C   0  0  0  0  0  0  0  0  0  0  0  0
   -4.8618   -0.3371    0.0266 H   0  0  0  0  0  0  0  0  0  0  0  0
   -3.9847    0.8090   -0.7879 H   0  0  0  0  0  0  0  0  0  0  0  0
   -3.9062    0.9713    0.9089 H   0  0  0  0  0  0  0  0  0  0  0  0
   -1.4110    0.1816   -0.0165 C   0  0  0  0  0  0  0  0  0  0  0  0
   -2.6980   -1.3121   -0.8383 H   0  0  0  0  0  0  0  0  0  0  0  0
   -2.6501   -1.2547    0.9221 H   0  0  0  0  0  0  0  0  0  0  0  0
   -0.1694   -0.6910    0.0551 C   0  0  0  0  0  0  0  0  0  0  0  0
   -1.4049    0.8044    0.8183 H   0  0  0  0  0  0  0  0  0  0  0  0
   -1.3828    0.8773   -0.9423 H   0  0  0  0  0  0  0  0  0  0  0  0
   -0.1636   -1.2729    0.9414 H   0  0  0  0  0  0  0  0  0  0  0  0
    0.7658   -0.0808    0.0627 H   0  0  0  0  0  0  0  0  0  0  0  0
   -0.0871   -1.4055   -0.8239 H   0  0  0  0  0  0  0  0  0  0  0  0
  1  5  1  0  0  0  0
  2  1  1  0  0  0  0
  2  8  1  0  0  0  0
  3  1  1  0  0  0  0
  4  1  1  0  0  0  0
  6  2  1  0  0  0  0
  6  9  1  0  0  0  0
  6 10  1  0  0  0  0
  7  2  1  0  0  0  0
  9 13  1  0  0  0  0
  9 12  1  0  0  0  0
 11  6  1  0  0  0  0
 14  9  1  0  0  0  0
M  END
$$$$
