14
butane_opt
C  -3.938537   0.249085   0.052957
C  -2.697081  -0.602943  -0.002893
H  -4.855473  -0.361901   0.169164
H  -3.995341   0.927333  -0.872596
H  -3.844711   0.879012   0.895360
C  -1.413357   0.199269  -0.014899
H  -2.763804  -1.312367  -0.885930
H  -2.699969  -1.142883   0.813172
C  -0.164996  -0.704114   0.063174
H  -1.421723   0.844719   0.821211
H  -1.349542   0.855397  -0.945255
H  -0.187738  -1.372042   0.986944
H   0.702210  -0.128206   0.056308
H  -0.039064  -1.361239  -0.784712
