butane_opt
 OpenBabel08242015413D

 14 13  0  0  0  0  0  0  0  0999 V2000
   -3.9525    0.2721   -0.0056 C   0  0  0  0  0  0  0  0  0  0  0  0
   -2.6949   -0.6337    0.0592 C   0  0  0  0  0  0  0  0  0  0  0  0
   -4.8692   -0.3202    0.0837 H   0  0  0  0  0  0  0  0  0  0  0  0
   -3.9843    0.9822   -0.9689 H   0  0  0  0  0  0  0  0  0  0  0  0
   -4.0484    0.8880    0.8107 H   0  0  0  0  0  0  0  0  0  0  0  0
   -1.4062    0.1823    0.0426 C   0  0  0  0  0  0  0  0  0  0  0  0
   -2.6701   -1.2885   -0.7711 H   0  0  0  0  0  0  0  0  0  0  0  0
   -2.7219   -1.2664    0.9578 H   0  0  0  0  0  0  0  0  0  0  0  0
   -0.1563   -0.6840    0.0068 C   0  0  0  0  0  0  0  0  0  0  0  0
   -1.3159    0.8963    0.9269 H   0  0  0  0  0  0  0  0  0  0  0  0
   -1.3736    0.7216   -0.8233 H   0  0  0  0  0  0  0  0  0  0  0  0
   -0.1042   -1.2812    0.8768 H   0  0  0  0  0  0  0  0  0  0  0  0
    0.7228   -0.0897   -0.0268 H   0  0  0  0  0  0  0  0  0  0  0  0
   -0.1370   -1.3534   -0.8660 H   0  0  0  0  0  0  0  0  0  0  0  0
  1  2  1  0  0  0  0
  1  3  1  0  0  0  0
  1  5  1  0  0  0  0
  2  8  1  0  0  0  0
  4  1  1  0  0  0  0
  6  2  1  0  0  0  0
  6 10  1  0  0  0  0
  7  2  1  0  0  0  0
  9  6  1  0  0  0  0
  9 12  1  0  0  0  0
 11  6  1  0  0  0  0
 13  9  1  0  0  0  0
 14  9  1  0  0  0  0
M  END
$$$$
