butane_opt
 OpenBabel08242015413D

 14 13  0  0  0  0  0  0  0  0999 V2000
   -3.9483    0.2599   -0.0021 C   0  0  0  0  0  0  0  0  0  0  0  0
   -2.6971   -0.6100    0.0502 C   0  0  0  0  0  0  0  0  0  0  0  0
   -4.8792   -0.3536    0.0404 H   0  0  0  0  0  0  0  0  0  0  0  0
   -3.9068    0.9046   -0.9435 H   0  0  0  0  0  0  0  0  0  0  0  0
   -3.9343    0.9214    0.8365 H   0  0  0  0  0  0  0  0  0  0  0  0
   -1.4015    0.1930    0.0499 C   0  0  0  0  0  0  0  0  0  0  0  0
   -2.7153   -1.2539   -0.7738 H   0  0  0  0  0  0  0  0  0  0  0  0
   -2.7498   -1.2278    0.9406 H   0  0  0  0  0  0  0  0  0  0  0  0
   -0.1614   -0.7023    0.0125 C   0  0  0  0  0  0  0  0  0  0  0  0
   -1.4054    0.8549    0.9019 H   0  0  0  0  0  0  0  0  0  0  0  0
   -1.3795    0.8011   -0.8552 H   0  0  0  0  0  0  0  0  0  0  0  0
   -0.0911   -1.3302    0.8912 H   0  0  0  0  0  0  0  0  0  0  0  0
    0.7531   -0.1124   -0.0985 H   0  0  0  0  0  0  0  0  0  0  0  0
   -0.2140   -1.3585   -0.8288 H   0  0  0  0  0  0  0  0  0  0  0  0
  1  3  1  0  0  0  0
  1  2  1  0  0  0  0
  1  5  1  0  0  0  0
  2  8  1  0  0  0  0
  4  1  1  0  0  0  0
  6  2  1  0  0  0  0
  6 10  1  0  0  0  0
  7  2  1  0  0  0  0
  9  6  1  0  0  0  0
  9 12  1  0  0  0  0
 11  6  1  0  0  0  0
 13  9  1  0  0  0  0
 14  9  1  0  0  0  0
M  END
$$$$
