14
butane_opt
C  -3.947587   0.262575   0.043420
C  -2.709700  -0.601446   0.012114
H  -4.902716  -0.342359   0.082066
H  -4.006333   0.804529  -0.799476
H  -3.908900   0.979124   0.953665
C  -1.397039   0.185699  -0.032771
H  -2.767054  -1.332176  -0.859739
H  -2.693112  -1.246194   0.902341
C  -0.149080  -0.695079   0.064575
H  -1.414113   0.812275   0.778596
H  -1.369438   0.854929  -0.968320
H  -0.156442  -1.283483   0.964106
H   0.716395  -0.146566   0.136885
H  -0.077626  -1.397771  -0.793485
