14
butane_opt
C  -3.943757   0.265227   0.036421
C  -2.683047  -0.621159  -0.000511
H  -4.833361  -0.332420   0.135928
H  -3.994430   0.932642  -0.885604
H  -3.926509   0.917831   0.886691
C  -1.405121   0.184067   0.005906
H  -2.696172  -1.277616  -0.840506
H  -2.725785  -1.256456   0.905651
C  -0.175689  -0.685282   0.047854
H  -1.427133   0.858695   0.852580
H  -1.351423   0.753295  -0.872787
H  -0.104626  -1.347452   0.998747
H   0.713684  -0.105718  -0.030805
H  -0.188324  -1.321862  -0.782142
