butane_opt
 OpenBabel08242015413D

 14 13  0  0  0  0  0  0  0  0999 V2000
   -3.9554    0.2682   -0.0125 C   0  0  0  0  0  0  0  0  0  0  0  0
   -2.7051   -0.6120    0.0605 C   0  0  0  0  0  0  0  0  0  0  0  0
   -4.8676   -0.3432    0.0130 H   0  0  0  0  0  0  0  0  0  0  0  0
   -3.9290    0.9300   -0.9446 H   0  0  0  0  0  0  0  0  0  0  0  0
   -3.9952    0.8578    0.7933 H   0  0  0  0  0  0  0  0  0  0  0  0
   -1.3991    0.1849    0.0557 C   0  0  0  0  0  0  0  0  0  0  0  0
   -2.7287   -1.2680   -0.7719 H   0  0  0  0  0  0  0  0  0  0  0  0
   -2.7401   -1.2661    1.0025 H   0  0  0  0  0  0  0  0  0  0  0  0
   -0.1549   -0.6953   -0.0089 C   0  0  0  0  0  0  0  0  0  0  0  0
   -1.3488    0.9264    0.9650 H   0  0  0  0  0  0  0  0  0  0  0  0
   -1.3890    0.7274   -0.7711 H   0  0  0  0  0  0  0  0  0  0  0  0
   -0.0235   -1.3694    0.9096 H   0  0  0  0  0  0  0  0  0  0  0  0
    0.7433   -0.1078   -0.0827 H   0  0  0  0  0  0  0  0  0  0  0  0
   -0.1742   -1.3031   -0.8133 H   0  0  0  0  0  0  0  0  0  0  0  0
  1  3  1  0  0  0  0
  1  2  1  0  0  0  0
  1  5  1  0  0  0  0
  2  8  1  0  0  0  0
  4  1  1  0  0  0  0
  6  2  1  0  0  0  0
  6 10  1  0  0  0  0
  7  2  1  0  0  0  0
  9  6  1  0  0  0  0
  9 12  1  0  0  0  0
 11  6  1  0  0  0  0
 13  9  1  0  0  0  0
 14  9  1  0  0  0  0
M  END
$$$$
