14
butane_opt
C  -3.949107   0.274814   0.037416
C  -2.701023  -0.628185   0.032787
H  -4.841698  -0.314890   0.082671
H  -3.992449   0.933140  -0.890294
H  -4.052368   0.927319   0.885019
C  -1.387162   0.183194  -0.015643
H  -2.713623  -1.326212  -0.839962
H  -2.679818  -1.265189   0.912254
C  -0.169793  -0.685986   0.046291
H  -1.370760   0.804500   0.806861
H  -1.354361   0.798456  -0.910490
H  -0.220244  -1.229673   0.902462
H   0.755999  -0.087121   0.159378
H  -0.066894  -1.433078  -0.884364
