butane_opt
 OpenBabel08242015413D

 14 13  0  0  0  0  0  0  0  0999 V2000
   -3.9437    0.2507    0.0373 C   0  0  0  0  0  0  0  0  0  0  0  0
   -2.7154   -0.6004    0.0381 C   0  0  0  0  0  0  0  0  0  0  0  0
   -4.8686   -0.3447   -0.0966 H   0  0  0  0  0  0  0  0  0  0  0  0
   -3.9159    0.7664   -0.7897 H   0  0  0  0  0  0  0  0  0  0  0  0
   -4.0021    1.0191    0.9822 H   0  0  0  0  0  0  0  0  0  0  0  0
   -1.4027    0.2058   -0.0236 C   0  0  0  0  0  0  0  0  0  0  0  0
   -2.7457   -1.3414   -0.8341 H   0  0  0  0  0  0  0  0  0  0  0  0
   -2.6956   -1.2083    0.9048 H   0  0  0  0  0  0  0  0  0  0  0  0
   -0.1493   -0.7058    0.0485 C   0  0  0  0  0  0  0  0  0  0  0  0
   -1.3956    0.8609    0.7983 H   0  0  0  0  0  0  0  0  0  0  0  0
   -1.3420    0.8699   -0.9544 H   0  0  0  0  0  0  0  0  0  0  0  0
   -0.1221   -1.3938    1.0080 H   0  0  0  0  0  0  0  0  0  0  0  0
    0.7066   -0.1454    0.0405 H   0  0  0  0  0  0  0  0  0  0  0  0
   -0.1007   -1.3709   -0.8118 H   0  0  0  0  0  0  0  0  0  0  0  0
  1  2  1  0  0  0  0
  1  5  1  0  0  0  0
  2  8  1  0  0  0  0
  3  1  1  0  0  0  0
  4  1  1  0  0  0  0
  6  2  1  0  0  0  0
  6  9  1  0  0  0  0
  6 10  1  0  0  0  0
  7  2  1  0  0  0  0
  9 12  1  0  0  0  0
 11  6  1  0  0  0  0
 13  9  1  0  0  0  0
 14  9  1  0  0  0  0
M  END
$$$$
