14
butane_opt
C  -3.929703   0.246465  -0.009004
C  -2.701191  -0.598990   0.073451
H  -4.858683  -0.336767  -0.095007
H  -3.915482   0.850345  -0.880321
H  -4.037657   0.968093   0.870474
C  -1.414320   0.196903   0.034546
H  -2.681284  -1.237046  -0.732182
H  -2.731398  -1.323981   1.012958
C  -0.160964  -0.700044   0.002706
H  -1.417786   0.900404   0.911191
H  -1.391338   0.814461  -0.840003
H  -0.107277  -1.303762   0.891680
H   0.739708  -0.117325  -0.037268
H  -0.140547  -1.424797  -0.890511
