butane_opt
 OpenBabel08242015413D

 14 13  0  0  0  0  0  0  0  0999 V2000
   -3.9503    0.2674    0.0422 C   0  0  0  0  0  0  0  0  0  0  0  0
   -2.6926   -0.6181    0.0202 C   0  0  0  0  0  0  0  0  0  0  0  0
   -4.8551   -0.3249    0.0106 H   0  0  0  0  0  0  0  0  0  0  0  0
   -3.9597    0.8325   -0.8281 H   0  0  0  0  0  0  0  0  0  0  0  0
   -3.9432    1.0028    0.9382 H   0  0  0  0  0  0  0  0  0  0  0  0
   -1.3929    0.1734   -0.0320 C   0  0  0  0  0  0  0  0  0  0  0  0
   -2.7677   -1.2552   -0.7954 H   0  0  0  0  0  0  0  0  0  0  0  0
   -2.6512   -1.2400    0.9206 H   0  0  0  0  0  0  0  0  0  0  0  0
   -0.1741   -0.6893    0.0582 C   0  0  0  0  0  0  0  0  0  0  0  0
   -1.4085    0.8565    0.8258 H   0  0  0  0  0  0  0  0  0  0  0  0
   -1.3605    0.8065   -0.9302 H   0  0  0  0  0  0  0  0  0  0  0  0
   -0.2087   -1.2662    0.9580 H   0  0  0  0  0  0  0  0  0  0  0  0
    0.7329   -0.0949    0.0949 H   0  0  0  0  0  0  0  0  0  0  0  0
   -0.0867   -1.3955   -0.8246 H   0  0  0  0  0  0  0  0  0  0  0  0
  1  5  1  0  0  0  0
  2  1  1  0  0  0  0
  2  8  1  0  0  0  0
  3  1  1  0  0  0  0
  4  1  1  0  0  0  0
  6  2  1  0  0  0  0
  6  9  1  0  0  0  0
  6 10  1  0  0  0  0
  7  2  1  0  0  0  0
  9 13  1  0  0  0  0
  9 12  1  0  0  0  0
 11  6  1  0  0  0  0
 14  9  1  0  0  0  0
M  END
$$$$
