butane_opt
 OpenBabel08242015413D

 14 13  0  0  0  0  0  0  0  0999 V2000
   -3.9427    0.2532    0.0429 C   0  0  0  0  0  0  0  0  0  0  0  0
   -2.7076   -0.5953    0.0291 C   0  0  0  0  0  0  0  0  0  0  0  0
   -4.9010   -0.3898    0.0402 H   0  0  0  0  0  0  0  0  0  0  0  0
   -3.9286    0.8685   -0.8606 H   0  0  0  0  0  0  0  0  0  0  0  0
   -3.9315    0.9292    0.9090 H   0  0  0  0  0  0  0  0  0  0  0  0
   -1.3999    0.2004   -0.0238 C   0  0  0  0  0  0  0  0  0  0  0  0
   -2.7302   -1.3215   -0.8433 H   0  0  0  0  0  0  0  0  0  0  0  0
   -2.6893   -1.2182    0.8960 H   0  0  0  0  0  0  0  0  0  0  0  0
   -0.1550   -0.7085    0.0500 C   0  0  0  0  0  0  0  0  0  0  0  0
   -1.3746    0.8338    0.8065 H   0  0  0  0  0  0  0  0  0  0  0  0
   -1.4134    0.8943   -0.9425 H   0  0  0  0  0  0  0  0  0  0  0  0
   -0.2156   -1.2889    0.9092 H   0  0  0  0  0  0  0  0  0  0  0  0
    0.7321   -0.1540    0.1863 H   0  0  0  0  0  0  0  0  0  0  0  0
   -0.0926   -1.4333   -0.8376 H   0  0  0  0  0  0  0  0  0  0  0  0
  1  5  1  0  0  0  0
  2  1  1  0  0  0  0
  2  8  1  0  0  0  0
  3  1  1  0  0  0  0
  4  1  1  0  0  0  0
  6  2  1  0  0  0  0
  6  9  1  0  0  0  0
  6 10  1  0  0  0  0
  7  2  1  0  0  0  0
  9 13  1  0  0  0  0
  9 12  1  0  0  0  0
 11  6  1  0  0  0  0
 14  9  1  0  0  0  0
M  END
$$$$
