14
butane_opt
C  -3.947417   0.254748   0.053741
C  -2.701851  -0.611931   0.009897
H  -4.875292  -0.349597   0.070685
H  -3.998262   0.885876  -0.841275
H  -3.877124   0.934543   0.915205
C  -1.395593   0.209570  -0.038104
H  -2.765485  -1.292344  -0.859895
H  -2.687021  -1.227663   0.895393
C  -0.161225  -0.702731   0.062056
H  -1.447266   0.858973   0.804996
H  -1.361867   0.800718  -0.899219
H  -0.211461  -1.334282   0.963783
H   0.718846  -0.144684   0.138602
H  -0.040017  -1.404116  -0.809419
