14
butane_opt
C  -3.941671   0.279156   0.036083
C  -2.688492  -0.628206   0.008706
H  -4.833132  -0.328343   0.121632
H  -4.025343   0.966651  -0.884481
H  -3.932772   0.887108   0.866853
C  -1.399426   0.169999  -0.002300
H  -2.759517  -1.339231  -0.849218
H  -2.670891  -1.248468   0.898220
C  -0.181281  -0.678605   0.045617
H  -1.402810   0.894155   0.884444
H  -1.331170   0.760007  -0.860616
H  -0.180417  -1.366636   0.993906
H   0.748244  -0.069389  -0.004978
H  -0.115076  -1.325371  -0.796800
