14
butane_opt
C  -3.949003   0.256685   0.039245
C  -2.694540  -0.610000   0.030483
H  -4.867316  -0.345190   0.038893
H  -3.984333   0.854054  -0.842201
H  -3.960482   0.968171   0.931296
C  -1.403563   0.195972  -0.023133
H  -2.752829  -1.350729  -0.873026
H  -2.710991  -1.215121   0.907747
C  -0.164549  -0.694814   0.059574
H  -1.359454   0.837360   0.767371
H  -1.397960   0.866863  -0.948809
H  -0.177689  -1.290865   0.931844
H   0.743302  -0.139223   0.094062
H  -0.012854  -1.434526  -0.841252
