14
butane_opt
C  -3.957780   0.274899   0.039707
C  -2.697450  -0.622885   0.015523
H  -4.887322  -0.335018  -0.076760
H  -3.947576   0.767673  -0.768024
H  -3.997119   1.066493   0.987457
C  -1.393979   0.172148  -0.019175
H  -2.726380  -1.294991  -0.807328
H  -2.661776  -1.288167   0.914388
C  -0.153917  -0.684062   0.058618
H  -1.400488   0.843176   0.816097
H  -1.378154   0.831079  -0.944342
H  -0.159386  -1.331363   0.975993
H   0.738751  -0.114054  -0.044075
H  -0.164212  -1.299031  -0.737550
