butane_opt
 OpenBabel08242015413D

 14 13  0  0  0  0  0  0  0  0999 V2000
   -3.9311    0.2469    0.0386 C   0  0  0  0  0  0  0  0  0  0  0  0
   -2.6991   -0.6005    0.0023 C   0  0  0  0  0  0  0  0  0  0  0  0
   -4.8233   -0.3337    0.1734 H   0  0  0  0  0  0  0  0  0  0  0  0
   -4.0597    0.9336   -0.8930 H   0  0  0  0  0  0  0  0  0  0  0  0
   -3.8316    0.8664    0.8870 H   0  0  0  0  0  0  0  0  0  0  0  0
   -1.4123    0.1940   -0.0093 C   0  0  0  0  0  0  0  0  0  0  0  0
   -2.7252   -1.3128   -0.8645 H   0  0  0  0  0  0  0  0  0  0  0  0
   -2.7305   -1.2152    0.8893 H   0  0  0  0  0  0  0  0  0  0  0  0
   -0.1614   -0.7045    0.0544 C   0  0  0  0  0  0  0  0  0  0  0  0
   -1.4533    0.9266    0.8574 H   0  0  0  0  0  0  0  0  0  0  0  0
   -1.4050    0.8268   -0.8972 H   0  0  0  0  0  0  0  0  0  0  0  0
   -0.1356   -1.3223    0.9617 H   0  0  0  0  0  0  0  0  0  0  0  0
    0.7106   -0.1210    0.0412 H   0  0  0  0  0  0  0  0  0  0  0  0
   -0.1179   -1.3522   -0.7546 H   0  0  0  0  0  0  0  0  0  0  0  0
  1  3  1  0  0  0  0
  1  5  1  0  0  0  0
  2  1  1  0  0  0  0
  2  8  1  0  0  0  0
  4  1  1  0  0  0  0
  6  2  1  0  0  0  0
  6  9  1  0  0  0  0
  6 10  1  0  0  0  0
  7  2  1  0  0  0  0
  9 12  1  0  0  0  0
 11  6  1  0  0  0  0
 13  9  1  0  0  0  0
 14  9  1  0  0  0  0
M  END
$$$$
