butane_opt
 OpenBabel08242015413D

 14 13  0  0  0  0  0  0  0  0999 V2000
   -3.9369    0.2797    0.0263 C   0  0  0  0  0  0  0  0  0  0  0  0
   -2.6881   -0.6338    0.0214 C   0  0  0  0  0  0  0  0  0  0  0  0
   -4.8498   -0.2976    0.0272 H   0  0  0  0  0  0  0  0  0  0  0  0
   -4.0415    0.8359   -0.8263 H   0  0  0  0  0  0  0  0  0  0  0  0
   -3.9371    0.9459    0.8935 H   0  0  0  0  0  0  0  0  0  0  0  0
   -1.3976    0.1775    0.0127 C   0  0  0  0  0  0  0  0  0  0  0  0
   -2.6635   -1.3738   -0.8590 H   0  0  0  0  0  0  0  0  0  0  0  0
   -2.6977   -1.1869    0.8811 H   0  0  0  0  0  0  0  0  0  0  0  0
   -0.1798   -0.6819    0.0409 C   0  0  0  0  0  0  0  0  0  0  0  0
   -1.4302    0.8235    0.8437 H   0  0  0  0  0  0  0  0  0  0  0  0
   -1.3779    0.8250   -0.8952 H   0  0  0  0  0  0  0  0  0  0  0  0
   -0.1266   -1.4060    1.0193 H   0  0  0  0  0  0  0  0  0  0  0  0
    0.7575   -0.0734   -0.1014 H   0  0  0  0  0  0  0  0  0  0  0  0
   -0.2312   -1.2563   -0.7475 H   0  0  0  0  0  0  0  0  0  0  0  0
  1  3  1  0  0  0  0
  1  5  1  0  0  0  0
  2  1  1  0  0  0  0
  2  8  1  0  0  0  0
  4  1  1  0  0  0  0
  6  2  1  0  0  0  0
  6  9  1  0  0  0  0
  6 10  1  0  0  0  0
  7  2  1  0  0  0  0
  9 12  1  0  0  0  0
 11  6  1  0  0  0  0
 13  9  1  0  0  0  0
 14  9  1  0  0  0  0
M  END
$$$$
