butane_opt
 OpenBabel08242015413D

 14 13  0  0  0  0  0  0  0  0999 V2000
   -3.9414    0.2672    0.0393 C   0  0  0  0  0  0  0  0  0  0  0  0
   -2.6908   -0.6134    0.0063 C   0  0  0  0  0  0  0  0  0  0  0  0
   -4.8984   -0.3610    0.1391 H   0  0  0  0  0  0  0  0  0  0  0  0
   -3.9854    0.8301   -0.8456 H   0  0  0  0  0  0  0  0  0  0  0  0
   -3.8832    0.9561    0.9272 H   0  0  0  0  0  0  0  0  0  0  0  0
   -1.4152    0.1866   -0.0137 C   0  0  0  0  0  0  0  0  0  0  0  0
   -2.7188   -1.3353   -0.8906 H   0  0  0  0  0  0  0  0  0  0  0  0
   -2.6905   -1.2218    0.8961 H   0  0  0  0  0  0  0  0  0  0  0  0
   -0.1605   -0.6886    0.0585 C   0  0  0  0  0  0  0  0  0  0  0  0
   -1.4425    0.8568    0.8127 H   0  0  0  0  0  0  0  0  0  0  0  0
   -1.3545    0.8107   -0.9236 H   0  0  0  0  0  0  0  0  0  0  0  0
   -0.1663   -1.3729    1.0061 H   0  0  0  0  0  0  0  0  0  0  0  0
    0.7483   -0.1212    0.0134 H   0  0  0  0  0  0  0  0  0  0  0  0
   -0.1369   -1.3346   -0.7695 H   0  0  0  0  0  0  0  0  0  0  0  0
  1  3  1  0  0  0  0
  1  5  1  0  0  0  0
  2  1  1  0  0  0  0
  2  8  1  0  0  0  0
  4  1  1  0  0  0  0
  6  2  1  0  0  0  0
  6  9  1  0  0  0  0
  6 10  1  0  0  0  0
  7  2  1  0  0  0  0
  9 12  1  0  0  0  0
 11  6  1  0  0  0  0
 13  9  1  0  0  0  0
 14  9  1  0  0  0  0
M  END
$$$$
