butane_opt
 OpenBabel08242015413D

 14 13  0  0  0  0  0  0  0  0999 V2000
   -3.9486    0.2585    0.0434 C   0  0  0  0  0  0  0  0  0  0  0  0
   -2.7128   -0.6054    0.0102 C   0  0  0  0  0  0  0  0  0  0  0  0
   -4.8474   -0.3507    0.0744 H   0  0  0  0  0  0  0  0  0  0  0  0
   -3.9802    0.8671   -0.8487 H   0  0  0  0  0  0  0  0  0  0  0  0
   -3.9189    0.9128    0.9070 H   0  0  0  0  0  0  0  0  0  0  0  0
   -1.4053    0.1965   -0.0195 C   0  0  0  0  0  0  0  0  0  0  0  0
   -2.7979   -1.2642   -0.8429 H   0  0  0  0  0  0  0  0  0  0  0  0
   -2.7280   -1.2438    0.9160 H   0  0  0  0  0  0  0  0  0  0  0  0
   -0.1426   -0.7018    0.0535 C   0  0  0  0  0  0  0  0  0  0  0  0
   -1.3848    0.8751    0.8364 H   0  0  0  0  0  0  0  0  0  0  0  0
   -1.3977    0.8263   -0.9317 H   0  0  0  0  0  0  0  0  0  0  0  0
   -0.1348   -1.3303    0.9756 H   0  0  0  0  0  0  0  0  0  0  0  0
    0.7521   -0.1111    0.1101 H   0  0  0  0  0  0  0  0  0  0  0  0
   -0.0783   -1.4274   -0.8084 H   0  0  0  0  0  0  0  0  0  0  0  0
  1  3  1  0  0  0  0
  1  5  1  0  0  0  0
  2  1  1  0  0  0  0
  2  8  1  0  0  0  0
  4  1  1  0  0  0  0
  6  2  1  0  0  0  0
  6  9  1  0  0  0  0
  6 10  1  0  0  0  0
  7  2  1  0  0  0  0
  9 13  1  0  0  0  0
  9 12  1  0  0  0  0
 11  6  1  0  0  0  0
 14  9  1  0  0  0  0
M  END
$$$$
