butane_opt
 OpenBabel08242015413D

 14 13  0  0  0  0  0  0  0  0999 V2000
   -3.9306    0.2560    0.0437 C   0  0  0  0  0  0  0  0  0  0  0  0
   -2.6990   -0.6014    0.0152 C   0  0  0  0  0  0  0  0  0  0  0  0
   -4.8741   -0.3920    0.0928 H   0  0  0  0  0  0  0  0  0  0  0  0
   -3.9796    0.8294   -0.8135 H   0  0  0  0  0  0  0  0  0  0  0  0
   -3.8682    0.9682    0.9353 H   0  0  0  0  0  0  0  0  0  0  0  0
   -1.4190    0.1967   -0.0309 C   0  0  0  0  0  0  0  0  0  0  0  0
   -2.7703   -1.3144   -0.8613 H   0  0  0  0  0  0  0  0  0  0  0  0
   -2.7065   -1.2024    0.8936 H   0  0  0  0  0  0  0  0  0  0  0  0
   -0.1511   -0.7027    0.0710 C   0  0  0  0  0  0  0  0  0  0  0  0
   -1.4587    0.7902    0.7363 H   0  0  0  0  0  0  0  0  0  0  0  0
   -1.4093    0.8811   -0.9405 H   0  0  0  0  0  0  0  0  0  0  0  0
   -0.2226   -1.2673    0.9375 H   0  0  0  0  0  0  0  0  0  0  0  0
    0.7376   -0.1118    0.1153 H   0  0  0  0  0  0  0  0  0  0  0  0
   -0.0691   -1.4460   -0.8498 H   0  0  0  0  0  0  0  0  0  0  0  0
  1  3  1  0  0  0  0
  1  5  1  0  0  0  0
  2  1  1  0  0  0  0
  2  8  1  0  0  0  0
  4  1  1  0  0  0  0
  6  2  1  0  0  0  0
  6  9  1  0  0  0  0
  6 10  1  0  0  0  0
  7  2  1  0  0  0  0
  9 13  1  0  0  0  0
  9 12  1  0  0  0  0
 11  6  1  0  0  0  0
 14  9  1  0  0  0  0
M  END
$$$$
