butane_opt
 OpenBabel08242015413D

 14 13  0  0  0  0  0  0  0  0999 V2000
   -3.9377    0.2491    0.0238 C   0  0  0  0  0  0  0  0  0  0  0  0
   -2.6999   -0.6006    0.0531 C   0  0  0  0  0  0  0  0  0  0  0  0
   -4.8401   -0.3528   -0.0667 H   0  0  0  0  0  0  0  0  0  0  0  0
   -3.8629    0.8083   -0.8524 H   0  0  0  0  0  0  0  0  0  0  0  0
   -3.9769    1.0093    0.9142 H   0  0  0  0  0  0  0  0  0  0  0  0
   -1.4088    0.2045   -0.0011 C   0  0  0  0  0  0  0  0  0  0  0  0
   -2.6976   -1.2948   -0.7961 H   0  0  0  0  0  0  0  0  0  0  0  0
   -2.7456   -1.2149    0.9151 H   0  0  0  0  0  0  0  0  0  0  0  0
   -0.1722   -0.7063    0.0262 C   0  0  0  0  0  0  0  0  0  0  0  0
   -1.3503    0.8305    0.8260 H   0  0  0  0  0  0  0  0  0  0  0  0
   -1.3941    0.8446   -0.8916 H   0  0  0  0  0  0  0  0  0  0  0  0
   -0.1449   -1.3494    0.9279 H   0  0  0  0  0  0  0  0  0  0  0  0
    0.7239   -0.1541    0.0693 H   0  0  0  0  0  0  0  0  0  0  0  0
   -0.1066   -1.3594   -0.8130 H   0  0  0  0  0  0  0  0  0  0  0  0
  1  2  1  0  0  0  0
  1  5  1  0  0  0  0
  2  8  1  0  0  0  0
  3  1  1  0  0  0  0
  4  1  1  0  0  0  0
  6  9  1  0  0  0  0
  6  2  1  0  0  0  0
  6 10  1  0  0  0  0
  7  2  1  0  0  0  0
  9 13  1  0  0  0  0
  9 12  1  0  0  0  0
 11  6  1  0  0  0  0
 14  9  1  0  0  0  0
M  END
$$$$
