14
butane_opt
C  -3.935908   0.250794   0.052531
C  -2.700840  -0.587787   0.004224
H  -4.856585  -0.360497   0.095204
H  -3.942135   0.859293  -0.854247
H  -3.893753   0.888393   0.887755
C  -1.412719   0.192598  -0.016125
H  -2.798190  -1.309500  -0.902131
H  -2.645656  -1.184349   0.872577
C  -0.168140  -0.705731   0.058646
H  -1.399847   0.848184   0.811984
H  -1.348166   0.842365  -0.956600
H  -0.156324  -1.351945   0.993971
H   0.745835  -0.148079   0.080588
H  -0.112997  -1.356627  -0.779875
