butane_opt
 OpenBabel08242015413D

 14 13  0  0  0  0  0  0  0  0999 V2000
   -3.9356    0.2707    0.0117 C   0  0  0  0  0  0  0  0  0  0  0  0
   -2.7006   -0.6071    0.0428 C   0  0  0  0  0  0  0  0  0  0  0  0
   -4.8868   -0.3748    0.0771 H   0  0  0  0  0  0  0  0  0  0  0  0
   -3.9593    0.8859   -0.9037 H   0  0  0  0  0  0  0  0  0  0  0  0
   -3.9441    0.8847    0.8506 H   0  0  0  0  0  0  0  0  0  0  0  0
   -1.4026    0.1801    0.0044 C   0  0  0  0  0  0  0  0  0  0  0  0
   -2.7128   -1.2272   -0.7394 H   0  0  0  0  0  0  0  0  0  0  0  0
   -2.7113   -1.3227    0.9886 H   0  0  0  0  0  0  0  0  0  0  0  0
   -0.1653   -0.6914    0.0307 C   0  0  0  0  0  0  0  0  0  0  0  0
   -1.3980    0.8427    0.8666 H   0  0  0  0  0  0  0  0  0  0  0  0
   -1.4204    0.7990   -0.8623 H   0  0  0  0  0  0  0  0  0  0  0  0
   -0.1809   -1.1656    0.8404 H   0  0  0  0  0  0  0  0  0  0  0  0
    0.7260   -0.1169    0.1278 H   0  0  0  0  0  0  0  0  0  0  0  0
   -0.0872   -1.5050   -0.9028 H   0  0  0  0  0  0  0  0  0  0  0  0
  1  2  1  0  0  0  0
  1  3  1  0  0  0  0
  1  5  1  0  0  0  0
  2  8  1  0  0  0  0
  4  1  1  0  0  0  0
  6  9  1  0  0  0  0
  6  2  1  0  0  0  0
  6 10  1  0  0  0  0
  7  2  1  0  0  0  0
  9 13  1  0  0  0  0
  9 12  1  0  0  0  0
 11  6  1  0  0  0  0
 14  9  1  0  0  0  0
M  END
$$$$
