butane_opt
 OpenBabel08242015413D

 14 13  0  0  0  0  0  0  0  0999 V2000
   -3.9353    0.2594    0.0353 C   0  0  0  0  0  0  0  0  0  0  0  0
   -2.6975   -0.5980    0.0246 C   0  0  0  0  0  0  0  0  0  0  0  0
   -4.8940   -0.3696   -0.0322 H   0  0  0  0  0  0  0  0  0  0  0  0
   -3.8886    0.7215   -0.7523 H   0  0  0  0  0  0  0  0  0  0  0  0
   -3.9690    1.0350    0.9614 H   0  0  0  0  0  0  0  0  0  0  0  0
   -1.4058    0.1918   -0.0158 C   0  0  0  0  0  0  0  0  0  0  0  0
   -2.7612   -1.3364   -0.8710 H   0  0  0  0  0  0  0  0  0  0  0  0
   -2.7075   -1.1966    0.9112 H   0  0  0  0  0  0  0  0  0  0  0  0
   -0.1622   -0.7056    0.0603 C   0  0  0  0  0  0  0  0  0  0  0  0
   -1.4463    0.8246    0.7733 H   0  0  0  0  0  0  0  0  0  0  0  0
   -1.3511    0.8852   -0.9453 H   0  0  0  0  0  0  0  0  0  0  0  0
   -0.1307   -1.3801    0.9909 H   0  0  0  0  0  0  0  0  0  0  0  0
    0.7280   -0.1349   -0.0477 H   0  0  0  0  0  0  0  0  0  0  0  0
   -0.1838   -1.3058   -0.7807 H   0  0  0  0  0  0  0  0  0  0  0  0
  1  5  1  0  0  0  0
  2  1  1  0  0  0  0
  2  8  1  0  0  0  0
  3  1  1  0  0  0  0
  4  1  1  0  0  0  0
  6  2  1  0  0  0  0
  6  9  1  0  0  0  0
  6 10  1  0  0  0  0
  7  2  1  0  0  0  0
  9 12  1  0  0  0  0
 11  6  1  0  0  0  0
 13  9  1  0  0  0  0
 14  9  1  0  0  0  0
M  END
$$$$
