butane_opt
 OpenBabel08242015413D

 14 13  0  0  0  0  0  0  0  0999 V2000
   -3.9597    0.2771    0.0086 C   0  0  0  0  0  0  0  0  0  0  0  0
   -2.6904   -0.6290    0.0401 C   0  0  0  0  0  0  0  0  0  0  0  0
   -4.8586   -0.2918    0.1208 H   0  0  0  0  0  0  0  0  0  0  0  0
   -4.0324    1.0064   -0.9680 H   0  0  0  0  0  0  0  0  0  0  0  0
   -3.9524    0.7922    0.7794 H   0  0  0  0  0  0  0  0  0  0  0  0
   -1.3984    0.1767    0.0332 C   0  0  0  0  0  0  0  0  0  0  0  0
   -2.7402   -1.2894   -0.8026 H   0  0  0  0  0  0  0  0  0  0  0  0
   -2.7167   -1.2796    0.9259 H   0  0  0  0  0  0  0  0  0  0  0  0
   -0.1545   -0.6909    0.0152 C   0  0  0  0  0  0  0  0  0  0  0  0
   -1.3539    0.8970    0.9227 H   0  0  0  0  0  0  0  0  0  0  0  0
   -1.4390    0.7453   -0.8037 H   0  0  0  0  0  0  0  0  0  0  0  0
   -0.1493   -1.2435    0.9024 H   0  0  0  0  0  0  0  0  0  0  0  0
    0.7848   -0.0442    0.0138 H   0  0  0  0  0  0  0  0  0  0  0  0
   -0.1387   -1.3597   -0.8355 H   0  0  0  0  0  0  0  0  0  0  0  0
  1  2  1  0  0  0  0
  1  3  1  0  0  0  0
  1  5  1  0  0  0  0
  2  8  1  0  0  0  0
  4  1  1  0  0  0  0
  6  2  1  0  0  0  0
  6 10  1  0  0  0  0
  7  2  1  0  0  0  0
  9  6  1  0  0  0  0
  9 12  1  0  0  0  0
 11  6  1  0  0  0  0
 13  9  1  0  0  0  0
 14  9  1  0  0  0  0
M  END
$$$$
