butane_opt
 OpenBabel08242015413D

 14 13  0  0  0  0  0  0  0  0999 V2000
   -3.9546    0.2524    0.0007 C   0  0  0  0  0  0  0  0  0  0  0  0
   -2.7155   -0.5993    0.0786 C   0  0  0  0  0  0  0  0  0  0  0  0
   -4.8763   -0.3455   -0.1357 H   0  0  0  0  0  0  0  0  0  0  0  0
   -3.8095    0.8349   -0.8653 H   0  0  0  0  0  0  0  0  0  0  0  0
   -4.0539    0.9622    0.8693 H   0  0  0  0  0  0  0  0  0  0  0  0
   -1.4024    0.1945    0.0227 C   0  0  0  0  0  0  0  0  0  0  0  0
   -2.7073   -1.2660   -0.7653 H   0  0  0  0  0  0  0  0  0  0  0  0
   -2.7477   -1.2380    0.9885 H   0  0  0  0  0  0  0  0  0  0  0  0
   -0.1455   -0.7042    0.0064 C   0  0  0  0  0  0  0  0  0  0  0  0
   -1.3476    0.8636    0.8695 H   0  0  0  0  0  0  0  0  0  0  0  0
   -1.3997    0.8238   -0.8362 H   0  0  0  0  0  0  0  0  0  0  0  0
   -0.0522   -1.3077    0.8729 H   0  0  0  0  0  0  0  0  0  0  0  0
    0.7197   -0.1581    0.0072 H   0  0  0  0  0  0  0  0  0  0  0  0
   -0.1282   -1.3732   -0.8580 H   0  0  0  0  0  0  0  0  0  0  0  0
  1  2  1  0  0  0  0
  1  5  1  0  0  0  0
  2  8  1  0  0  0  0
  3  1  1  0  0  0  0
  4  1  1  0  0  0  0
  6  2  1  0  0  0  0
  6 10  1  0  0  0  0
  7  2  1  0  0  0  0
  9 13  1  0  0  0  0
  9  6  1  0  0  0  0
  9 12  1  0  0  0  0
 11  6  1  0  0  0  0
 14  9  1  0  0  0  0
M  END
$$$$
