14
butane_opt
C  -3.946755   0.254647   0.006145
C  -2.717267  -0.594611   0.044096
H  -4.843955  -0.341280   0.126617
H  -3.911969   0.961796  -0.932622
H  -3.939387   0.799296   0.781780
C  -1.402200   0.192090   0.031387
H  -2.754879  -1.269715  -0.804952
H  -2.737545  -1.257973   0.970973
C  -0.146740  -0.703315   0.019841
H  -1.391194   0.902285   0.907392
H  -1.443255   0.807113  -0.874638
H  -0.107873  -1.262370   0.867377
H   0.769779  -0.129443   0.056807
H  -0.115507  -1.462205  -0.890733
