14
butane_opt
C  -3.950170   0.256813   0.010631
C  -2.712702  -0.605396   0.041974
H  -4.852983  -0.299686   0.100806
H  -3.948583   0.960526  -0.955959
H  -3.967298   0.796707   0.793029
C  -1.407841   0.189463   0.034383
H  -2.700224  -1.305667  -0.806225
H  -2.712986  -1.217687   0.922274
C  -0.141791  -0.698299   0.017901
H  -1.394626   0.883887   0.912322
H  -1.410083   0.795905  -0.828820
H  -0.118831  -1.300533   0.915562
H   0.761222  -0.106384  -0.034999
H  -0.132167  -1.386048  -0.852665
