14
butane_opt
C  -3.953212   0.265554   0.010194
C  -2.695647  -0.628476   0.055358
H  -4.829008  -0.291168  -0.048293
H  -3.961270   0.849411  -0.875159
H  -4.052336   0.997321   0.894078
C  -1.399042   0.184331   0.005039
H  -2.724921  -1.293981  -0.755024
H  -2.658435  -1.259566   0.946549
C  -0.167263  -0.687861   0.022328
H  -1.358892   0.890772   0.883718
H  -1.406830   0.784448  -0.857048
H  -0.093575  -1.313171   0.935131
H   0.785926  -0.086361   0.029405
H  -0.147669  -1.345105  -0.823005
