butane_opt
 OpenBabel08242015413D

 14 13  0  0  0  0  0  0  0  0999 V2000
   -3.9377    0.2708   -0.0050 C   0  0  0  0  0  0  0  0  0  0  0  0
   -2.6893   -0.6239    0.0790 C   0  0  0  0  0  0  0  0  0  0  0  0
   -4.8760   -0.3227    0.0165 H   0  0  0  0  0  0  0  0  0  0  0  0
   -3.8931    0.9238   -0.9566 H   0  0  0  0  0  0  0  0  0  0  0  0
   -3.9897    0.8664    0.7980 H   0  0  0  0  0  0  0  0  0  0  0  0
   -1.4011    0.1867    0.0256 C   0  0  0  0  0  0  0  0  0  0  0  0
   -2.7341   -1.2569   -0.7363 H   0  0  0  0  0  0  0  0  0  0  0  0
   -2.7066   -1.2537    0.9643 H   0  0  0  0  0  0  0  0  0  0  0  0
   -0.1761   -0.6945    0.0116 C   0  0  0  0  0  0  0  0  0  0  0  0
   -1.3418    0.8786    0.9122 H   0  0  0  0  0  0  0  0  0  0  0  0
   -1.4170    0.7993   -0.8616 H   0  0  0  0  0  0  0  0  0  0  0  0
   -0.1991   -1.1835    0.8185 H   0  0  0  0  0  0  0  0  0  0  0  0
    0.7231   -0.1093    0.0759 H   0  0  0  0  0  0  0  0  0  0  0  0
   -0.1378   -1.4897   -0.9471 H   0  0  0  0  0  0  0  0  0  0  0  0
  1  3  1  0  0  0  0
  1  2  1  0  0  0  0
  1  5  1  0  0  0  0
  2  8  1  0  0  0  0
  4  1  1  0  0  0  0
  6  2  1  0  0  0  0
  6 10  1  0  0  0  0
  7  2  1  0  0  0  0
  9  6  1  0  0  0  0
  9 13  1  0  0  0  0
  9 12  1  0  0  0  0
 11  6  1  0  0  0  0
 14  9  1  0  0  0  0
M  END
$$$$
