14
butane_opt
C  -3.945174   0.268058  -0.004694
C  -2.689458  -0.621092   0.062159
H  -4.801202  -0.272786   0.007060
H  -3.930603   0.924445  -0.944121
H  -3.997713   0.887828   0.791423
C  -1.400689   0.171175   0.046908
H  -2.686373  -1.329039  -0.803869
H  -2.693153  -1.231541   0.951354
C  -0.175391  -0.683274   0.009697
H  -1.366221   0.884401   0.913112
H  -1.457399   0.777769  -0.808268
H  -0.070709  -1.337466   0.907395
H   0.774850  -0.067935  -0.093930
H  -0.275383  -1.313443  -0.845242
