14
butane_opt
C  -3.937206   0.249612  -0.002157
C  -2.701522  -0.592435   0.075941
H  -4.880504  -0.353083  -0.088295
H  -3.797562   0.848433  -0.891253
H  -4.022666   0.946697   0.877672
C  -1.423325   0.194514   0.027933
H  -2.706016  -1.275789  -0.776163
H  -2.747235  -1.278601   0.978887
C  -0.150079  -0.705845   0.006670
H  -1.390117   0.881449   0.888070
H  -1.433127   0.800364  -0.844367
H  -0.108222  -1.301700   0.892071
H   0.766975  -0.124765  -0.017223
H  -0.158292  -1.365705  -0.873802
