butane_opt
 OpenBabel08242015413D

 14 13  0  0  0  0  0  0  0  0999 V2000
   -3.9534    0.2531    0.0136 C   0  0  0  0  0  0  0  0  0  0  0  0
   -2.7000   -0.6121    0.0300 C   0  0  0  0  0  0  0  0  0  0  0  0
   -4.8224   -0.3234    0.0328 H   0  0  0  0  0  0  0  0  0  0  0  0
   -4.0068    0.9243   -0.9163 H   0  0  0  0  0  0  0  0  0  0  0  0
   -3.9526    0.9199    0.8475 H   0  0  0  0  0  0  0  0  0  0  0  0
   -1.4063    0.2017    0.0303 C   0  0  0  0  0  0  0  0  0  0  0  0
   -2.7285   -1.2409   -0.7925 H   0  0  0  0  0  0  0  0  0  0  0  0
   -2.7229   -1.2958    0.9629 H   0  0  0  0  0  0  0  0  0  0  0  0
   -0.1537   -0.6996    0.0254 C   0  0  0  0  0  0  0  0  0  0  0  0
   -1.3724    0.8712    0.8783 H   0  0  0  0  0  0  0  0  0  0  0  0
   -1.4007    0.7537   -0.8320 H   0  0  0  0  0  0  0  0  0  0  0  0
   -0.0490   -1.3314    0.9342 H   0  0  0  0  0  0  0  0  0  0  0  0
    0.7549   -0.1048   -0.0435 H   0  0  0  0  0  0  0  0  0  0  0  0
   -0.1631   -1.3520   -0.8262 H   0  0  0  0  0  0  0  0  0  0  0  0
  1  2  1  0  0  0  0
  1  3  1  0  0  0  0
  1  5  1  0  0  0  0
  2  6  1  0  0  0  0
  2  8  1  0  0  0  0
  4  1  1  0  0  0  0
  6 10  1  0  0  0  0
  7  2  1  0  0  0  0
  9  6  1  0  0  0  0
  9 12  1  0  0  0  0
 11  6  1  0  0  0  0
 13  9  1  0  0  0  0
 14  9  1  0  0  0  0
M  END
$$$$
