14
butane_opt
C  -3.956760   0.273201  -0.005660
C  -2.697382  -0.633407   0.054900
H  -4.845531  -0.314511   0.002287
H  -4.000568   0.924385  -0.917982
H  -4.023827   0.986695   0.866748
C  -1.391069   0.177407   0.045986
H  -2.680020  -1.282274  -0.785223
H  -2.735350  -1.292289   0.983277
C  -0.169420  -0.687679   0.007495
H  -1.341998   0.897865   0.902782
H  -1.312621   0.776474  -0.847939
H  -0.051517  -1.342453   0.911119
H   0.745003  -0.077841  -0.067943
H  -0.198964  -1.299807  -0.833605
