14
butane_opt
C  -3.945856   0.270833   0.031530
C  -2.697851  -0.621576   0.025622
H  -4.839143  -0.316944   0.084602
H  -4.046663   0.887857  -0.847602
H  -3.893070   0.937417   0.890581
C  -1.406513   0.165429  -0.013576
H  -2.695635  -1.319361  -0.835248
H  -2.635300  -1.234085   0.930062
C  -0.171924  -0.681034   0.052822
H  -1.396457   0.839203   0.833964
H  -1.362130   0.861170  -0.966887
H  -0.189754  -1.242331   0.888372
H   0.763408  -0.080253   0.136638
H  -0.070676  -1.407101  -0.843201
