butane_opt
 OpenBabel08242015413D

 14 13  0  0  0  0  0  0  0  0999 V2000
   -3.9444    0.2775   -0.0086 C   0  0  0  0  0  0  0  0  0  0  0  0
   -2.7015   -0.6190    0.0783 C   0  0  0  0  0  0  0  0  0  0  0  0
   -4.8493   -0.2996   -0.0811 H   0  0  0  0  0  0  0  0  0  0  0  0
   -3.8826    0.8250   -0.8880 H   0  0  0  0  0  0  0  0  0  0  0  0
   -4.0621    0.9818    0.8748 H   0  0  0  0  0  0  0  0  0  0  0  0
   -1.3944    0.1676    0.0332 C   0  0  0  0  0  0  0  0  0  0  0  0
   -2.6629   -1.3051   -0.7967 H   0  0  0  0  0  0  0  0  0  0  0  0
   -2.6950   -1.2589    0.9869 H   0  0  0  0  0  0  0  0  0  0  0  0
   -0.1775   -0.6851    0.0100 C   0  0  0  0  0  0  0  0  0  0  0  0
   -1.3023    0.8269    0.8663 H   0  0  0  0  0  0  0  0  0  0  0  0
   -1.4321    0.7578   -0.8443 H   0  0  0  0  0  0  0  0  0  0  0  0
   -0.0915   -1.2957    0.8748 H   0  0  0  0  0  0  0  0  0  0  0  0
    0.7600   -0.0664   -0.0510 H   0  0  0  0  0  0  0  0  0  0  0  0
   -0.1970   -1.3209   -0.8406 H   0  0  0  0  0  0  0  0  0  0  0  0
  1  2  1  0  0  0  0
  1  5  1  0  0  0  0
  2  8  1  0  0  0  0
  3  1  1  0  0  0  0
  4  1  1  0  0  0  0
  6  2  1  0  0  0  0
  6 10  1  0  0  0  0
  7  2  1  0  0  0  0
  9  6  1  0  0  0  0
  9 12  1  0  0  0  0
 11  6  1  0  0  0  0
 13  9  1  0  0  0  0
 14  9  1  0  0  0  0
M  END
$$$$
