butane_opt
 OpenBabel08242015413D

 14 13  0  0  0  0  0  0  0  0999 V2000
   -3.9270    0.2514    0.0049 C   0  0  0  0  0  0  0  0  0  0  0  0
   -2.7064   -0.6113    0.0487 C   0  0  0  0  0  0  0  0  0  0  0  0
   -4.8536   -0.3475    0.1083 H   0  0  0  0  0  0  0  0  0  0  0  0
   -3.9479    0.9616   -0.9540 H   0  0  0  0  0  0  0  0  0  0  0  0
   -3.9189    0.8848    0.8341 H   0  0  0  0  0  0  0  0  0  0  0  0
   -1.4152    0.1996    0.0297 C   0  0  0  0  0  0  0  0  0  0  0  0
   -2.6966   -1.2788   -0.8075 H   0  0  0  0  0  0  0  0  0  0  0  0
   -2.7471   -1.2350    0.9435 H   0  0  0  0  0  0  0  0  0  0  0  0
   -0.1566   -0.7009    0.0200 C   0  0  0  0  0  0  0  0  0  0  0  0
   -1.3970    0.8517    0.8654 H   0  0  0  0  0  0  0  0  0  0  0  0
   -1.4636    0.8520   -0.8428 H   0  0  0  0  0  0  0  0  0  0  0  0
   -0.1453   -1.2490    0.8883 H   0  0  0  0  0  0  0  0  0  0  0  0
    0.7390   -0.1373    0.0387 H   0  0  0  0  0  0  0  0  0  0  0  0
   -0.1251   -1.4461   -0.8843 H   0  0  0  0  0  0  0  0  0  0  0  0
  1  2  1  0  0  0  0
  1  3  1  0  0  0  0
  1  5  1  0  0  0  0
  2  8  1  0  0  0  0
  4  1  1  0  0  0  0
  6  2  1  0  0  0  0
  6 10  1  0  0  0  0
  7  2  1  0  0  0  0
  9  6  1  0  0  0  0
  9 13  1  0  0  0  0
  9 12  1  0  0  0  0
 11  6  1  0  0  0  0
 14  9  1  0  0  0  0
M  END
$$$$
