14
butane_opt
C  -3.959507   0.274271   0.036158
C  -2.698992  -0.632030   0.024405
H  -4.846965  -0.313952  -0.030516
H  -3.988175   0.778474  -0.782054
H  -4.010619   1.056179   0.984097
C  -1.395674   0.185127  -0.016723
H  -2.691931  -1.347496  -0.871726
H  -2.682128  -1.257894   0.888482
C  -0.164253  -0.689664   0.062554
H  -1.361506   0.812626   0.781315
H  -1.373261   0.897137  -0.959561
H  -0.090305  -1.359347   0.987771
H   0.792732  -0.058466   0.000825
H  -0.156199  -1.327816  -0.810517
