14
butane_opt
C  -3.963526   0.273631  -0.000757
C  -2.703116  -0.627574   0.047175
H  -4.884540  -0.325087   0.175017
H  -4.016775   1.026717  -0.979267
H  -3.890293   0.856131   0.816746
C  -1.398540   0.179118   0.038054
H  -2.678716  -1.311608  -0.818641
H  -2.744857  -1.235328   0.905890
C  -0.154088  -0.688961   0.025256
H  -1.328119   0.836210   0.883475
H  -1.370998   0.790358  -0.845083
H  -0.127366  -1.227677   0.865451
H   0.780710  -0.104674  -0.009188
H  -0.136501  -1.402531  -0.886648
