14
butane_opt
C  -3.947302   0.271109  -0.009229
C  -2.688033  -0.626741   0.053179
H  -4.831195  -0.292937   0.010490
H  -3.940113   0.924735  -0.927726
H  -3.984957   0.915111   0.838160
C  -1.402362   0.173018   0.052032
H  -2.715863  -1.288422  -0.778420
H  -2.685651  -1.282949   0.974765
C  -0.169114  -0.681953   0.000646
H  -1.384486   0.923558   0.941539
H  -1.452099   0.768758  -0.800057
H  -0.116555  -1.406809   0.939079
H   0.800613  -0.039200  -0.093853
H  -0.242078  -1.305529  -0.821311
