butane_opt
 OpenBabel08242015413D

 14 13  0  0  0  0  0  0  0  0999 V2000
   -3.9440    0.2585   -0.0034 C   0  0  0  0  0  0  0  0  0  0  0  0
   -2.6976   -0.6111    0.0529 C   0  0  0  0  0  0  0  0  0  0  0  0
   -4.9089   -0.3846    0.1626 H   0  0  0  0  0  0  0  0  0  0  0  0
   -3.9792    1.0133   -1.0034 H   0  0  0  0  0  0  0  0  0  0  0  0
   -3.9756    0.7691    0.7748 H   0  0  0  0  0  0  0  0  0  0  0  0
   -1.4078    0.2030    0.0494 C   0  0  0  0  0  0  0  0  0  0  0  0
   -2.7196   -1.3082   -0.8021 H   0  0  0  0  0  0  0  0  0  0  0  0
   -2.7446   -1.2169    0.9246 H   0  0  0  0  0  0  0  0  0  0  0  0
   -0.1525   -0.7044    0.0078 C   0  0  0  0  0  0  0  0  0  0  0  0
   -1.3341    0.9249    0.9359 H   0  0  0  0  0  0  0  0  0  0  0  0
   -1.4515    0.8301   -0.8592 H   0  0  0  0  0  0  0  0  0  0  0  0
   -0.1019   -1.2863    0.8869 H   0  0  0  0  0  0  0  0  0  0  0  0
    0.7426   -0.1298    0.0186 H   0  0  0  0  0  0  0  0  0  0  0  0
   -0.1205   -1.4400   -0.8913 H   0  0  0  0  0  0  0  0  0  0  0  0
  1  2  1  0  0  0  0
  1  3  1  0  0  0  0
  1  5  1  0  0  0  0
  2  8  1  0  0  0  0
  4  1  1  0  0  0  0
  6  2  1  0  0  0  0
  6 10  1  0  0  0  0
  7  2  1  0  0  0  0
  9 13  1  0  0  0  0
  9  6  1  0  0  0  0
  9 12  1  0  0  0  0
 11  6  1  0  0  0  0
 14  9  1  0  0  0  0
M  END
$$$$
