14
butane_opt
C  -3.943330   0.255197  -0.003591
C  -2.709349  -0.607097   0.065474
H  -4.882910  -0.337844  -0.104069
H  -3.934447   0.788818  -0.850802
H  -3.980731   1.007309   0.926295
C  -1.396583   0.199794   0.023977
H  -2.735807  -1.209910  -0.749743
H  -2.735915  -1.295212   0.991076
C  -0.145204  -0.707314   0.012324
H  -1.411159   0.847006   0.869529
H  -1.445424   0.834071  -0.873611
H  -0.141120  -1.292832   0.895618
H   0.741637  -0.130717   0.011926
H  -0.154164  -1.377862  -0.852585
