14
butane_opt
C  -3.949304   0.274135   0.032836
C  -2.700620  -0.635671   0.004216
H  -4.813708  -0.269845   0.113100
H  -4.041111   0.906723  -0.896604
H  -3.948127   0.941745   0.897887
C  -1.403351   0.176832   0.010746
H  -2.707708  -1.325795  -0.853975
H  -2.680085  -1.290786   0.878499
C  -0.155446  -0.683264   0.048876
H  -1.390313   0.875213   0.881757
H  -1.370637   0.823796  -0.897711
H  -0.102032  -1.349985   0.973197
H   0.759341  -0.093717  -0.048586
H  -0.228390  -1.259884  -0.757348
