14
butane_opt
C  -3.946117   0.251099   0.046953
C  -2.700318  -0.611119   0.005709
H  -4.866233  -0.356490   0.137639
H  -4.002830   0.943015  -0.878280
H  -3.938884   0.866110   0.866675
C  -1.412674   0.199827  -0.010000
H  -2.765073  -1.313502  -0.865180
H  -2.673974  -1.137569   0.855741
C  -0.144980  -0.705071   0.055104
H  -1.439154   0.875797   0.828033
H  -1.349960   0.841222  -0.907611
H  -0.188460  -1.338841   0.972115
H   0.744129  -0.115890   0.031300
H  -0.082104  -1.363890  -0.787483
