14
butane_opt
C  -3.934967   0.256512   0.044724
C  -2.695462  -0.597669   0.025451
H  -4.895913  -0.385648   0.080138
H  -3.930741   0.863753  -0.841095
H  -3.942365   0.899880   0.888568
C  -1.417780   0.195905  -0.031005
H  -2.705279  -1.312660  -0.849559
H  -2.675330  -1.223376   0.905543
C  -0.165646  -0.705628   0.058465
H  -1.402273   0.863533   0.814918
H  -1.373453   0.826356  -0.961758
H  -0.194516  -1.266649   0.917760
H   0.740783  -0.078973   0.159494
H  -0.073401  -1.455320  -0.848100
