butane_opt
 OpenBabel08242015413D

 14 13  0  0  0  0  0  0  0  0999 V2000
   -3.9539    0.2685    0.0032 C   0  0  0  0  0  0  0  0  0  0  0  0
   -2.7043   -0.6257    0.0347 C   0  0  0  0  0  0  0  0  0  0  0  0
   -4.8507   -0.2946    0.2193 H   0  0  0  0  0  0  0  0  0  0  0  0
   -4.0788    0.9768   -0.9482 H   0  0  0  0  0  0  0  0  0  0  0  0
   -3.9314    0.8531    0.8101 H   0  0  0  0  0  0  0  0  0  0  0  0
   -1.3883    0.1868    0.0310 C   0  0  0  0  0  0  0  0  0  0  0  0
   -2.7077   -1.3278   -0.8362 H   0  0  0  0  0  0  0  0  0  0  0  0
   -2.7034   -1.2256    0.9403 H   0  0  0  0  0  0  0  0  0  0  0  0
   -0.1590   -0.6888    0.0280 C   0  0  0  0  0  0  0  0  0  0  0  0
   -1.3491    0.8429    0.8701 H   0  0  0  0  0  0  0  0  0  0  0  0
   -1.3764    0.7960   -0.8514 H   0  0  0  0  0  0  0  0  0  0  0  0
   -0.1404   -1.2608    0.8924 H   0  0  0  0  0  0  0  0  0  0  0  0
    0.7248   -0.1375    0.0394 H   0  0  0  0  0  0  0  0  0  0  0  0
   -0.1368   -1.3831   -0.8686 H   0  0  0  0  0  0  0  0  0  0  0  0
  1  2  1  0  0  0  0
  1  3  1  0  0  0  0
  1  5  1  0  0  0  0
  2  8  1  0  0  0  0
  4  1  1  0  0  0  0
  6  2  1  0  0  0  0
  6 10  1  0  0  0  0
  7  2  1  0  0  0  0
  9  6  1  0  0  0  0
  9 13  1  0  0  0  0
  9 12  1  0  0  0  0
 11  6  1  0  0  0  0
 14  9  1  0  0  0  0
M  END
$$$$
