butane_opt
 OpenBabel08242015413D

 14 13  0  0  0  0  0  0  0  0999 V2000
   -3.9434    0.2686    0.0048 C   0  0  0  0  0  0  0  0  0  0  0  0
   -2.7041   -0.6094    0.0619 C   0  0  0  0  0  0  0  0  0  0  0  0
   -4.8643   -0.3453    0.0560 H   0  0  0  0  0  0  0  0  0  0  0  0
   -3.9351    0.9310   -0.9479 H   0  0  0  0  0  0  0  0  0  0  0  0
   -3.9632    0.8331    0.8218 H   0  0  0  0  0  0  0  0  0  0  0  0
   -1.3990    0.1781    0.0190 C   0  0  0  0  0  0  0  0  0  0  0  0
   -2.6766   -1.2331   -0.7564 H   0  0  0  0  0  0  0  0  0  0  0  0
   -2.7317   -1.2877    0.9754 H   0  0  0  0  0  0  0  0  0  0  0  0
   -0.1631   -0.6995    0.0106 C   0  0  0  0  0  0  0  0  0  0  0  0
   -1.3717    0.9264    0.9099 H   0  0  0  0  0  0  0  0  0  0  0  0
   -1.3940    0.8060   -0.8469 H   0  0  0  0  0  0  0  0  0  0  0  0
   -0.2323   -1.1906    0.8467 H   0  0  0  0  0  0  0  0  0  0  0  0
    0.7589   -0.1002    0.1050 H   0  0  0  0  0  0  0  0  0  0  0  0
   -0.0940   -1.4722   -0.9013 H   0  0  0  0  0  0  0  0  0  0  0  0
  1  3  1  0  0  0  0
  1  2  1  0  0  0  0
  1  5  1  0  0  0  0
  2  8  1  0  0  0  0
  4  1  1  0  0  0  0
  6  2  1  0  0  0  0
  6 10  1  0  0  0  0
  7  2  1  0  0  0  0
  9  6  1  0  0  0  0
  9 13  1  0  0  0  0
  9 12  1  0  0  0  0
 11  6  1  0  0  0  0
 14  9  1  0  0  0  0
M  END
$$$$
