14
butane_opt
C  -3.952328   0.277580   0.033664
C  -2.705861  -0.631159   0.038621
H  -4.853856  -0.307758  -0.083403
H  -3.935867   0.849726  -0.830490
H  -4.068905   1.017509   0.927830
C  -1.398084   0.172874  -0.005287
H  -2.751035  -1.301334  -0.825343
H  -2.694074  -1.226103   0.915856
C  -0.153314  -0.690279   0.039514
H  -1.341727   0.799714   0.802976
H  -1.371681   0.826938  -0.930113
H  -0.138561  -1.285147   0.939790
H   0.815874  -0.059468   0.047636
H  -0.170409  -1.330722  -0.791754
