butane_opt
 OpenBabel08242015413D

 14 13  0  0  0  0  0  0  0  0999 V2000
   -3.9447    0.2700    0.0579 C   0  0  0  0  0  0  0  0  0  0  0  0
   -2.6940   -0.6131    0.0013 C   0  0  0  0  0  0  0  0  0  0  0  0
   -4.8162   -0.2843    0.0636 H   0  0  0  0  0  0  0  0  0  0  0  0
   -3.9996    0.8937   -0.8419 H   0  0  0  0  0  0  0  0  0  0  0  0
   -3.9448    0.9409    0.9272 H   0  0  0  0  0  0  0  0  0  0  0  0
   -1.3977    0.1682   -0.0318 C   0  0  0  0  0  0  0  0  0  0  0  0
   -2.7861   -1.3197   -0.8878 H   0  0  0  0  0  0  0  0  0  0  0  0
   -2.6529   -1.2759    0.8978 H   0  0  0  0  0  0  0  0  0  0  0  0
   -0.1708   -0.6872    0.0647 C   0  0  0  0  0  0  0  0  0  0  0  0
   -1.4099    0.8383    0.8258 H   0  0  0  0  0  0  0  0  0  0  0  0
   -1.3511    0.7918   -0.9436 H   0  0  0  0  0  0  0  0  0  0  0  0
   -0.2477   -1.2956    0.9609 H   0  0  0  0  0  0  0  0  0  0  0  0
    0.7830   -0.0832    0.1137 H   0  0  0  0  0  0  0  0  0  0  0  0
   -0.1165   -1.3188   -0.7840 H   0  0  0  0  0  0  0  0  0  0  0  0
  1  3  1  0  0  0  0
  1  5  1  0  0  0  0
  2  1  1  0  0  0  0
  2  8  1  0  0  0  0
  4  1  1  0  0  0  0
  6  2  1  0  0  0  0
  6  9  1  0  0  0  0
  6 10  1  0  0  0  0
  7  2  1  0  0  0  0
  9 13  1  0  0  0  0
  9 12  1  0  0  0  0
 11  6  1  0  0  0  0
 14  9  1  0  0  0  0
M  END
$$$$
