14
butane_opt
C  -3.956423   0.278313  -0.001998
C  -2.691333  -0.628462   0.047216
H  -4.879579  -0.321098   0.113993
H  -3.999447   0.963930  -0.960532
H  -3.993124   0.873660   0.814782
C  -1.402742   0.163170   0.043316
H  -2.696159  -1.295124  -0.793148
H  -2.736626  -1.257709   0.945446
C  -0.156298  -0.679299   0.009096
H  -1.305329   0.892655   0.943162
H  -1.433092   0.785004  -0.856489
H  -0.118583  -1.295030   0.929798
H   0.762167  -0.059637  -0.015036
H  -0.150253  -1.359718  -0.854078
