butane_opt
 OpenBabel08242015413D

 14 13  0  0  0  0  0  0  0  0999 V2000
   -3.9517    0.2692   -0.0079 C   0  0  0  0  0  0  0  0  0  0  0  0
   -2.7007   -0.6187    0.0685 C   0  0  0  0  0  0  0  0  0  0  0  0
   -4.8393   -0.3120    0.0401 H   0  0  0  0  0  0  0  0  0  0  0  0
   -3.9601    0.9339   -0.9416 H   0  0  0  0  0  0  0  0  0  0  0  0
   -4.0101    0.9084    0.7961 H   0  0  0  0  0  0  0  0  0  0  0  0
   -1.3966    0.1700    0.0500 C   0  0  0  0  0  0  0  0  0  0  0  0
   -2.7128   -1.3072   -0.7944 H   0  0  0  0  0  0  0  0  0  0  0  0
   -2.7723   -1.2252    0.9514 H   0  0  0  0  0  0  0  0  0  0  0  0
   -0.1574   -0.6938   -0.0001 C   0  0  0  0  0  0  0  0  0  0  0  0
   -1.3757    0.8695    0.9400 H   0  0  0  0  0  0  0  0  0  0  0  0
   -1.3983    0.8340   -0.8659 H   0  0  0  0  0  0  0  0  0  0  0  0
   -0.1342   -1.2827    0.8839 H   0  0  0  0  0  0  0  0  0  0  0  0
    0.7825   -0.0583   -0.0393 H   0  0  0  0  0  0  0  0  0  0  0  0
   -0.1341   -1.3476   -0.8630 H   0  0  0  0  0  0  0  0  0  0  0  0
  1  3  1  0  0  0  0
  1  2  1  0  0  0  0
  1  5  1  0  0  0  0
  2  8  1  0  0  0  0
  4  1  1  0  0  0  0
  6  2  1  0  0  0  0
  6 10  1  0  0  0  0
  7  2  1  0  0  0  0
  9  6  1  0  0  0  0
  9 12  1  0  0  0  0
 11  6  1  0  0  0  0
 13  9  1  0  0  0  0
 14  9  1  0  0  0  0
M  END
$$$$
