14
butane_opt
C  -3.941645   0.251493  -0.006352
C  -2.706111  -0.611039   0.068777
H  -4.844171  -0.299351   0.015313
H  -3.979337   0.912763  -0.934570
H  -3.981426   0.916168   0.851121
C  -1.407372   0.204064   0.029919
H  -2.757125  -1.255799  -0.754167
H  -2.731384  -1.283126   1.009971
C  -0.155504  -0.704383   0.014557
H  -1.384241   0.833727   0.853306
H  -1.379246   0.824943  -0.873866
H  -0.109624  -1.200487   0.817084
H   0.759602  -0.106638   0.094410
H  -0.087908  -1.494308  -0.942895
