14
butane_opt
C  -3.941169   0.255128  -0.018142
C  -2.710256  -0.608956   0.085628
H  -4.875038  -0.368445  -0.073935
H  -3.901605   0.831446  -0.908190
H  -4.074744   0.960892   0.886835
C  -1.410703   0.209555   0.027377
H  -2.751171  -1.240229  -0.745264
H  -2.722174  -1.299622   1.038801
C  -0.141520  -0.709781   0.002473
H  -1.353115   0.913800   0.927808
H  -1.425385   0.810324  -0.824783
H  -0.094913  -1.288910   0.862823
H   0.764341  -0.116885   0.012219
H  -0.133472  -1.433361  -0.907659
