butane_opt
 OpenBabel08242015413D

 14 13  0  0  0  0  0  0  0  0999 V2000
   -3.9510    0.2742    0.0163 C   0  0  0  0  0  0  0  0  0  0  0  0
   -2.6909   -0.6153    0.0591 C   0  0  0  0  0  0  0  0  0  0  0  0
   -4.8528   -0.3070    0.0510 H   0  0  0  0  0  0  0  0  0  0  0  0
   -3.9638    0.9176   -0.9032 H   0  0  0  0  0  0  0  0  0  0  0  0
   -3.9112    0.8828    0.8386 H   0  0  0  0  0  0  0  0  0  0  0  0
   -1.3994    0.1691    0.0003 C   0  0  0  0  0  0  0  0  0  0  0  0
   -2.7061   -1.3475   -0.8048 H   0  0  0  0  0  0  0  0  0  0  0  0
   -2.6814   -1.2266    0.9307 H   0  0  0  0  0  0  0  0  0  0  0  0
   -0.1756   -0.6877    0.0288 C   0  0  0  0  0  0  0  0  0  0  0  0
   -1.3558    0.8449    0.8453 H   0  0  0  0  0  0  0  0  0  0  0  0
   -1.3631    0.8271   -0.9122 H   0  0  0  0  0  0  0  0  0  0  0  0
   -0.2552   -1.2282    0.8539 H   0  0  0  0  0  0  0  0  0  0  0  0
    0.7692   -0.0581    0.1651 H   0  0  0  0  0  0  0  0  0  0  0  0
   -0.1089   -1.4563   -0.8959 H   0  0  0  0  0  0  0  0  0  0  0  0
  1  3  1  0  0  0  0
  1  2  1  0  0  0  0
  1  5  1  0  0  0  0
  2  8  1  0  0  0  0
  4  1  1  0  0  0  0
  6  9  1  0  0  0  0
  6  2  1  0  0  0  0
  6 10  1  0  0  0  0
  7  2  1  0  0  0  0
  9 13  1  0  0  0  0
  9 12  1  0  0  0  0
 11  6  1  0  0  0  0
 14  9  1  0  0  0  0
M  END
$$$$
