butane_opt
 OpenBabel08242015413D

 14 13  0  0  0  0  0  0  0  0999 V2000
   -3.9319    0.2566   -0.0196 C   0  0  0  0  0  0  0  0  0  0  0  0
   -2.6980   -0.6132    0.0780 C   0  0  0  0  0  0  0  0  0  0  0  0
   -4.8281   -0.3468   -0.0314 H   0  0  0  0  0  0  0  0  0  0  0  0
   -3.9075    0.8399   -0.9042 H   0  0  0  0  0  0  0  0  0  0  0  0
   -4.0045    0.9669    0.8636 H   0  0  0  0  0  0  0  0  0  0  0  0
   -1.4182    0.1997    0.0419 C   0  0  0  0  0  0  0  0  0  0  0  0
   -2.6830   -1.2708   -0.7505 H   0  0  0  0  0  0  0  0  0  0  0  0
   -2.7568   -1.2633    0.9919 H   0  0  0  0  0  0  0  0  0  0  0  0
   -0.1565   -0.7031    0.0070 C   0  0  0  0  0  0  0  0  0  0  0  0
   -1.3216    0.8783    0.9267 H   0  0  0  0  0  0  0  0  0  0  0  0
   -1.4535    0.8416   -0.8607 H   0  0  0  0  0  0  0  0  0  0  0  0
   -0.1099   -1.2959    0.8568 H   0  0  0  0  0  0  0  0  0  0  0  0
    0.7290   -0.1220   -0.0499 H   0  0  0  0  0  0  0  0  0  0  0  0
   -0.2219   -1.3831   -0.8804 H   0  0  0  0  0  0  0  0  0  0  0  0
  1  2  1  0  0  0  0
  1  5  1  0  0  0  0
  2  8  1  0  0  0  0
  3  1  1  0  0  0  0
  4  1  1  0  0  0  0
  6  2  1  0  0  0  0
  6 10  1  0  0  0  0
  7  2  1  0  0  0  0
  9  6  1  0  0  0  0
  9 12  1  0  0  0  0
 11  6  1  0  0  0  0
 13  9  1  0  0  0  0
 14  9  1  0  0  0  0
M  END
$$$$
