14
butane_opt
C  -3.946740   0.251738   0.044297
C  -2.708100  -0.599713  -0.005217
H  -4.848388  -0.345910   0.211539
H  -4.070060   0.862176  -0.853469
H  -3.875227   0.881056   0.870281
C  -1.408276   0.203957  -0.014947
H  -2.735442  -1.331573  -0.891086
H  -2.726036  -1.220618   0.887014
C  -0.141547  -0.711532   0.063511
H  -1.460181   0.893341   0.832695
H  -1.371845   0.862526  -0.915018
H  -0.145599  -1.342650   0.991084
H   0.769454  -0.116188   0.049376
H  -0.098108  -1.349388  -0.793253
