14
butane_opt
C  -3.966664   0.276557  -0.021166
C  -2.697663  -0.625288   0.080922
H  -4.876075  -0.310449  -0.055112
H  -3.958113   0.859430  -0.914536
H  -4.022383   0.999078   0.861294
C  -1.383799   0.165912   0.050285
H  -2.691515  -1.244663  -0.737769
H  -2.758676  -1.333042   1.015915
C  -0.150488  -0.684758  -0.010153
H  -1.332887   0.868840   0.909049
H  -1.401970   0.814305  -0.834313
H  -0.125008  -1.275952   0.858755
H   0.729081  -0.087853   0.019637
H  -0.198942  -1.355089  -0.874746
