butane_opt
 OpenBabel08242015413D

 14 13  0  0  0  0  0  0  0  0999 V2000
   -3.9504    0.2739    0.0019 C   0  0  0  0  0  0  0  0  0  0  0  0
   -2.6900   -0.6274    0.0557 C   0  0  0  0  0  0  0  0  0  0  0  0
   -4.8632   -0.3128   -0.0749 H   0  0  0  0  0  0  0  0  0  0  0  0
   -3.9897    0.8376   -0.8677 H   0  0  0  0  0  0  0  0  0  0  0  0
   -4.0308    0.9547    0.8707 H   0  0  0  0  0  0  0  0  0  0  0  0
   -1.3963    0.1794    0.0344 C   0  0  0  0  0  0  0  0  0  0  0  0
   -2.6949   -1.2587   -0.7708 H   0  0  0  0  0  0  0  0  0  0  0  0
   -2.7068   -1.3091    0.9932 H   0  0  0  0  0  0  0  0  0  0  0  0
   -0.1661   -0.6787    0.0136 C   0  0  0  0  0  0  0  0  0  0  0  0
   -1.4131    0.8618    0.8641 H   0  0  0  0  0  0  0  0  0  0  0  0
   -1.3623    0.7785   -0.8549 H   0  0  0  0  0  0  0  0  0  0  0  0
   -0.0806   -1.3213    0.8962 H   0  0  0  0  0  0  0  0  0  0  0  0
    0.7266   -0.1224   -0.0467 H   0  0  0  0  0  0  0  0  0  0  0  0
   -0.1745   -1.3461   -0.8395 H   0  0  0  0  0  0  0  0  0  0  0  0
  1  2  1  0  0  0  0
  1  5  1  0  0  0  0
  2  8  1  0  0  0  0
  3  1  1  0  0  0  0
  4  1  1  0  0  0  0
  6  2  1  0  0  0  0
  6 10  1  0  0  0  0
  7  2  1  0  0  0  0
  9  6  1  0  0  0  0
  9 12  1  0  0  0  0
 11  6  1  0  0  0  0
 13  9  1  0  0  0  0
 14  9  1  0  0  0  0
M  END
$$$$
