14
butane_opt
C  -3.948003   0.266208  -0.005604
C  -2.686672  -0.622552   0.067990
H  -4.790229  -0.274698   0.003544
H  -3.968023   0.946025  -0.954598
H  -4.013871   0.897492   0.834876
C  -1.408278   0.174839   0.043090
H  -2.708212  -1.356668  -0.849755
H  -2.709916  -1.239441   0.949931
C  -0.167428  -0.684843   0.005924
H  -1.375845   0.889189   0.932495
H  -1.372404   0.774411  -0.823448
H  -0.092650  -1.312149   0.932849
H   0.764245  -0.091602  -0.109675
H  -0.233704  -1.294208  -0.818947
