14
butane_opt
C  -3.945132   0.264828   0.047411
C  -2.695197  -0.613497  -0.003927
H  -4.817255  -0.286616   0.154733
H  -4.057948   0.937244  -0.872208
H  -3.880307   0.898947   0.887322
C  -1.402598   0.165626  -0.014259
H  -2.720444  -1.316905  -0.859169
H  -2.660202  -1.241306   0.869994
C  -0.166317  -0.689746   0.061496
H  -1.454520   0.899234   0.853280
H  -1.334804   0.795191  -0.929282
H  -0.193171  -1.316904   0.984508
H   0.771760  -0.050201   0.047734
H  -0.170414  -1.310094  -0.792669
