14
butane_opt
C  -3.943458   0.248004   0.034868
C  -2.711884  -0.608071   0.009843
H  -4.848507  -0.326591   0.019901
H  -3.983516   0.845131  -0.853071
H  -3.948291   0.988307   0.921014
C  -1.412700   0.208967   0.008845
H  -2.750263  -1.294684  -0.857969
H  -2.748016  -1.221681   0.892230
C  -0.140213  -0.701960   0.042936
H  -1.354620   0.857774   0.842661
H  -1.435849   0.785520  -0.879075
H  -0.060569  -1.462744   1.031076
H   0.733955  -0.137677  -0.088637
H  -0.126758  -1.263659  -0.722633
