butane_opt
 OpenBabel08242015413D

 14 13  0  0  0  0  0  0  0  0999 V2000
   -3.9583    0.2735    0.0391 C   0  0  0  0  0  0  0  0  0  0  0  0
   -2.6950   -0.6237    0.0085 C   0  0  0  0  0  0  0  0  0  0  0  0
   -4.8837   -0.3172    0.1534 H   0  0  0  0  0  0  0  0  0  0  0  0
   -4.0551    0.9220   -0.8940 H   0  0  0  0  0  0  0  0  0  0  0  0
   -3.9251    0.8942    0.8780 H   0  0  0  0  0  0  0  0  0  0  0  0
   -1.4040    0.1699    0.0024 C   0  0  0  0  0  0  0  0  0  0  0  0
   -2.7498   -1.3375   -0.8934 H   0  0  0  0  0  0  0  0  0  0  0  0
   -2.6614   -1.1979    0.8542 H   0  0  0  0  0  0  0  0  0  0  0  0
   -0.1485   -0.6803    0.0508 C   0  0  0  0  0  0  0  0  0  0  0  0
   -1.3663    0.8194    0.8217 H   0  0  0  0  0  0  0  0  0  0  0  0
   -1.3721    0.8330   -0.9145 H   0  0  0  0  0  0  0  0  0  0  0  0
   -0.2001   -1.3387    0.9956 H   0  0  0  0  0  0  0  0  0  0  0  0
    0.7443   -0.0749    0.0269 H   0  0  0  0  0  0  0  0  0  0  0  0
   -0.0867   -1.3489   -0.8022 H   0  0  0  0  0  0  0  0  0  0  0  0
  1  3  1  0  0  0  0
  1  5  1  0  0  0  0
  2  1  1  0  0  0  0
  2  8  1  0  0  0  0
  4  1  1  0  0  0  0
  6  2  1  0  0  0  0
  6  9  1  0  0  0  0
  6 10  1  0  0  0  0
  7  2  1  0  0  0  0
  9 12  1  0  0  0  0
 11  6  1  0  0  0  0
 13  9  1  0  0  0  0
 14  9  1  0  0  0  0
M  END
$$$$
