14
butane_opt
C  -3.934128   0.256915   0.054858
C  -2.704336  -0.598499  -0.011149
H  -4.886097  -0.385113   0.125840
H  -4.043312   0.878107  -0.835340
H  -3.846565   0.902877   0.908768
C  -1.409322   0.191229  -0.020975
H  -2.737357  -1.277960  -0.869728
H  -2.746820  -1.188788   0.887853
C  -0.155811  -0.701712   0.069564
H  -1.421666   0.838972   0.802795
H  -1.360045   0.825613  -0.933799
H  -0.167154  -1.345068   0.962479
H   0.727979  -0.156980   0.056618
H  -0.089279  -1.346009  -0.774030
