14
butane_opt
C  -3.940919   0.278969   0.011093
C  -2.700295  -0.632640   0.050115
H  -4.831348  -0.328107   0.099096
H  -3.992397   0.982976  -0.948900
H  -3.951608   0.888018   0.820785
C  -1.398116   0.175935   0.013033
H  -2.679298  -1.297887  -0.813503
H  -2.668719  -1.286082   0.968672
C  -0.174007  -0.679861   0.019777
H  -1.316515   0.851798   0.884019
H  -1.408780   0.767032  -0.835546
H  -0.208651  -1.243041   0.876531
H   0.730985  -0.094412   0.149506
H  -0.135892  -1.418331  -0.897895
