butane_opt
 OpenBabel08242015413D

 14 13  0  0  0  0  0  0  0  0999 V2000
   -3.9493    0.2709    0.0050 C   0  0  0  0  0  0  0  0  0  0  0  0
   -2.6970   -0.6310    0.0605 C   0  0  0  0  0  0  0  0  0  0  0  0
   -4.8488   -0.3124   -0.0625 H   0  0  0  0  0  0  0  0  0  0  0  0
   -3.9878    0.7995   -0.8324 H   0  0  0  0  0  0  0  0  0  0  0  0
   -4.0423    1.0481    0.9390 H   0  0  0  0  0  0  0  0  0  0  0  0
   -1.4017    0.1871    0.0059 C   0  0  0  0  0  0  0  0  0  0  0  0
   -2.6810   -1.2762   -0.7646 H   0  0  0  0  0  0  0  0  0  0  0  0
   -2.7203   -1.2879    0.9643 H   0  0  0  0  0  0  0  0  0  0  0  0
   -0.1593   -0.6936    0.0238 C   0  0  0  0  0  0  0  0  0  0  0  0
   -1.3718    0.8712    0.8436 H   0  0  0  0  0  0  0  0  0  0  0  0
   -1.3760    0.8001   -0.8930 H   0  0  0  0  0  0  0  0  0  0  0  0
   -0.1430   -1.3036    0.9176 H   0  0  0  0  0  0  0  0  0  0  0  0
    0.8042   -0.0696    0.0440 H   0  0  0  0  0  0  0  0  0  0  0  0
   -0.1674   -1.3396   -0.8431 H   0  0  0  0  0  0  0  0  0  0  0  0
  1  2  1  0  0  0  0
  1  5  1  0  0  0  0
  2  8  1  0  0  0  0
  3  1  1  0  0  0  0
  4  1  1  0  0  0  0
  6  9  1  0  0  0  0
  6  2  1  0  0  0  0
  6 10  1  0  0  0  0
  7  2  1  0  0  0  0
  9 13  1  0  0  0  0
  9 12  1  0  0  0  0
 11  6  1  0  0  0  0
 14  9  1  0  0  0  0
M  END
$$$$
