butane_opt
 OpenBabel08242015413D

 14 13  0  0  0  0  0  0  0  0999 V2000
   -3.9330    0.2502   -0.0196 C   0  0  0  0  0  0  0  0  0  0  0  0
   -2.7004   -0.5900    0.0853 C   0  0  0  0  0  0  0  0  0  0  0  0
   -4.8814   -0.3838   -0.0886 H   0  0  0  0  0  0  0  0  0  0  0  0
   -3.9203    0.8405   -0.9008 H   0  0  0  0  0  0  0  0  0  0  0  0
   -4.0000    0.9330    0.8450 H   0  0  0  0  0  0  0  0  0  0  0  0
   -1.4115    0.1876    0.0446 C   0  0  0  0  0  0  0  0  0  0  0  0
   -2.6646   -1.2255   -0.7289 H   0  0  0  0  0  0  0  0  0  0  0  0
   -2.6982   -1.2734    1.0112 H   0  0  0  0  0  0  0  0  0  0  0  0
   -0.1615   -0.7065   -0.0113 C   0  0  0  0  0  0  0  0  0  0  0  0
   -1.3666    0.8869    0.9115 H   0  0  0  0  0  0  0  0  0  0  0  0
   -1.4481    0.8057   -0.8037 H   0  0  0  0  0  0  0  0  0  0  0  0
   -0.1322   -1.2807    0.8595 H   0  0  0  0  0  0  0  0  0  0  0  0
    0.7224   -0.1075   -0.0043 H   0  0  0  0  0  0  0  0  0  0  0  0
   -0.1414   -1.3759   -0.8542 H   0  0  0  0  0  0  0  0  0  0  0  0
  1  2  1  0  0  0  0
  1  5  1  0  0  0  0
  2  8  1  0  0  0  0
  3  1  1  0  0  0  0
  4  1  1  0  0  0  0
  6  2  1  0  0  0  0
  6 10  1  0  0  0  0
  7  2  1  0  0  0  0
  9 13  1  0  0  0  0
  9  6  1  0  0  0  0
  9 12  1  0  0  0  0
 11  6  1  0  0  0  0
 14  9  1  0  0  0  0
M  END
$$$$
