butane_opt
 OpenBabel08242015413D

 14 13  0  0  0  0  0  0  0  0999 V2000
   -3.9424    0.2703    0.0207 C   0  0  0  0  0  0  0  0  0  0  0  0
   -2.6933   -0.6270    0.0418 C   0  0  0  0  0  0  0  0  0  0  0  0
   -4.8378   -0.2947   -0.0240 H   0  0  0  0  0  0  0  0  0  0  0  0
   -3.9342    0.8320   -0.8316 H   0  0  0  0  0  0  0  0  0  0  0  0
   -4.0064    1.0476    0.9402 H   0  0  0  0  0  0  0  0  0  0  0  0
   -1.3948    0.1690    0.0049 C   0  0  0  0  0  0  0  0  0  0  0  0
   -2.6591   -1.3240   -0.8182 H   0  0  0  0  0  0  0  0  0  0  0  0
   -2.7035   -1.2341    0.9378 H   0  0  0  0  0  0  0  0  0  0  0  0
   -0.1861   -0.6801    0.0324 C   0  0  0  0  0  0  0  0  0  0  0  0
   -1.3753    0.8131    0.8360 H   0  0  0  0  0  0  0  0  0  0  0  0
   -1.3493    0.8672   -0.9504 H   0  0  0  0  0  0  0  0  0  0  0  0
   -0.1588   -1.3273    0.9574 H   0  0  0  0  0  0  0  0  0  0  0  0
    0.7359   -0.0691    0.0189 H   0  0  0  0  0  0  0  0  0  0  0  0
   -0.1426   -1.3704   -0.8130 H   0  0  0  0  0  0  0  0  0  0  0  0
  1  2  1  0  0  0  0
  1  5  1  0  0  0  0
  2  8  1  0  0  0  0
  3  1  1  0  0  0  0
  4  1  1  0  0  0  0
  6  9  1  0  0  0  0
  6  2  1  0  0  0  0
  6 10  1  0  0  0  0
  7  2  1  0  0  0  0
  9 12  1  0  0  0  0
 11  6  1  0  0  0  0
 13  9  1  0  0  0  0
 14  9  1  0  0  0  0
M  END
$$$$
