14
butane_opt
C  -3.947857   0.268240  -0.004321
C  -2.706998  -0.624851   0.069885
H  -4.845687  -0.341718  -0.085732
H  -3.882951   0.825666  -0.871856
H  -4.082568   1.009582   0.886993
C  -1.403293   0.186940   0.029994
H  -2.703504  -1.279434  -0.752053
H  -2.725632  -1.249116   0.979877
C  -0.159928  -0.693001   0.007416
H  -1.267344   0.882629   0.886964
H  -1.403108   0.839967  -0.865189
H  -0.095852  -1.328424   0.912975
H   0.731685  -0.121544  -0.035241
H  -0.128475  -1.365322  -0.838842
