14
butane_opt
C  -3.938133   0.259322   0.034168
C  -2.704571  -0.602348   0.007715
H  -4.881486  -0.390342   0.020561
H  -3.989632   0.812328  -0.816906
H  -3.875689   0.961259   0.943679
C  -1.409300   0.192701   0.000515
H  -2.694979  -1.294350  -0.860116
H  -2.722379  -1.222194   0.862208
C  -0.153693  -0.702634   0.055798
H  -1.425040   0.883178   0.859180
H  -1.398992   0.818154  -0.890742
H  -0.076437  -1.426582   1.026602
H   0.719402  -0.162059  -0.136264
H  -0.201498  -1.219492  -0.729235
