butane_opt
 OpenBabel08242015413D

 14 13  0  0  0  0  0  0  0  0999 V2000
   -3.9330    0.2663    0.0379 C   0  0  0  0  0  0  0  0  0  0  0  0
   -2.7044   -0.6208    0.0144 C   0  0  0  0  0  0  0  0  0  0  0  0
   -4.8444   -0.3022    0.0058 H   0  0  0  0  0  0  0  0  0  0  0  0
   -3.9809    0.8600   -0.8551 H   0  0  0  0  0  0  0  0  0  0  0  0
   -3.9674    1.0140    0.9588 H   0  0  0  0  0  0  0  0  0  0  0  0
   -1.4043    0.1748   -0.0056 C   0  0  0  0  0  0  0  0  0  0  0  0
   -2.7198   -1.3396   -0.8727 H   0  0  0  0  0  0  0  0  0  0  0  0
   -2.6711   -1.1965    0.8536 H   0  0  0  0  0  0  0  0  0  0  0  0
   -0.1707   -0.6890    0.0546 C   0  0  0  0  0  0  0  0  0  0  0  0
   -1.4069    0.8566    0.8404 H   0  0  0  0  0  0  0  0  0  0  0  0
   -1.3671    0.7753   -0.8598 H   0  0  0  0  0  0  0  0  0  0  0  0
   -0.0941   -1.4438    1.0231 H   0  0  0  0  0  0  0  0  0  0  0  0
    0.7532   -0.0634   -0.1306 H   0  0  0  0  0  0  0  0  0  0  0  0
   -0.1792   -1.2004   -0.7228 H   0  0  0  0  0  0  0  0  0  0  0  0
  1  5  1  0  0  0  0
  2  1  1  0  0  0  0
  2  8  1  0  0  0  0
  3  1  1  0  0  0  0
  4  1  1  0  0  0  0
  6  2  1  0  0  0  0
  6  9  1  0  0  0  0
  6 10  1  0  0  0  0
  7  2  1  0  0  0  0
  9 12  1  0  0  0  0
 11  6  1  0  0  0  0
 13  9  1  0  0  0  0
 14  9  1  0  0  0  0
M  END
$$$$
