14
butane_opt
C  -3.932066   0.253449   0.030394
C  -2.701027  -0.595315   0.032490
H  -4.870717  -0.356152  -0.067045
H  -3.925096   0.808676  -0.827461
H  -3.943711   0.981979   0.949367
C  -1.421405   0.187951  -0.003764
H  -2.727872  -1.339161  -0.829347
H  -2.730338  -1.209990   0.912949
C  -0.156265  -0.707062   0.049263
H  -1.453627   0.853357   0.837062
H  -1.375284   0.866491  -0.939066
H  -0.075761  -1.334870   0.930080
H   0.787414  -0.104136  -0.058407
H  -0.178837  -1.301146  -0.763188
