14
butane_opt
C  -3.936660   0.258197  -0.005088
C  -2.701082  -0.609085   0.052264
H  -4.879633  -0.373172   0.168876
H  -3.965305   0.983219  -0.998389
H  -3.895883   0.775733   0.738059
C  -1.409423   0.193311   0.050658
H  -2.717538  -1.247674  -0.775086
H  -2.685155  -1.213448   0.950732
C  -0.166979  -0.703027   0.009408
H  -1.436227   0.895071   0.908127
H  -1.421819   0.830554  -0.842984
H  -0.064511  -1.224227   0.834761
H   0.754552  -0.129259   0.055209
H  -0.143441  -1.446359  -0.909636
