14
butane_opt
C  -3.950984   0.280120   0.028893
C  -2.706885  -0.634203   0.023952
H  -4.841476  -0.309044  -0.029857
H  -4.001703   0.740980  -0.754566
H  -3.986202   1.052164   0.985719
C  -1.395514   0.190294  -0.016067
H  -2.720746  -1.306901  -0.812034
H  -2.674897  -1.276971   0.911361
C  -0.162453  -0.691466   0.050423
H  -1.358768   0.822168   0.788276
H  -1.344041   0.822348  -0.926761
H  -0.138487  -1.353122   1.003980
H   0.759508  -0.093012   0.024051
H  -0.130565  -1.304043  -0.777400
