butane_opt
 OpenBabel08242015413D

 14 13  0  0  0  0  0  0  0  0999 V2000
   -3.9584    0.2754    0.0342 C   0  0  0  0  0  0  0  0  0  0  0  0
   -2.7006   -0.6302    0.0265 C   0  0  0  0  0  0  0  0  0  0  0  0
   -4.8483   -0.3109    0.0718 H   0  0  0  0  0  0  0  0  0  0  0  0
   -4.0476    0.9605   -0.9259 H   0  0  0  0  0  0  0  0  0  0  0  0
   -3.9692    0.9114    0.8754 H   0  0  0  0  0  0  0  0  0  0  0  0
   -1.3946    0.1722    0.0055 C   0  0  0  0  0  0  0  0  0  0  0  0
   -2.7478   -1.3744   -0.8937 H   0  0  0  0  0  0  0  0  0  0  0  0
   -2.6784   -1.2109    0.8589 H   0  0  0  0  0  0  0  0  0  0  0  0
   -0.1440   -0.6780    0.0435 C   0  0  0  0  0  0  0  0  0  0  0  0
   -1.4374    0.8404    0.8658 H   0  0  0  0  0  0  0  0  0  0  0  0
   -1.3752    0.7892   -0.8933 H   0  0  0  0  0  0  0  0  0  0  0  0
   -0.1462   -1.3454    0.9849 H   0  0  0  0  0  0  0  0  0  0  0  0
    0.7691   -0.0836   -0.0268 H   0  0  0  0  0  0  0  0  0  0  0  0
   -0.1743   -1.3072   -0.8006 H   0  0  0  0  0  0  0  0  0  0  0  0
  1  3  1  0  0  0  0
  1  5  1  0  0  0  0
  2  1  1  0  0  0  0
  2  8  1  0  0  0  0
  4  1  1  0  0  0  0
  6  2  1  0  0  0  0
  6  9  1  0  0  0  0
  6 10  1  0  0  0  0
  7  2  1  0  0  0  0
  9 12  1  0  0  0  0
 11  6  1  0  0  0  0
 13  9  1  0  0  0  0
 14  9  1  0  0  0  0
M  END
$$$$
