butane_opt
 OpenBabel08242015413D

 14 13  0  0  0  0  0  0  0  0999 V2000
   -3.9554    0.2726    0.0476 C   0  0  0  0  0  0  0  0  0  0  0  0
   -2.7005   -0.6371    0.0160 C   0  0  0  0  0  0  0  0  0  0  0  0
   -4.8270   -0.2485    0.0907 H   0  0  0  0  0  0  0  0  0  0  0  0
   -3.9962    0.8657   -0.8269 H   0  0  0  0  0  0  0  0  0  0  0  0
   -3.9824    1.0129    0.9752 H   0  0  0  0  0  0  0  0  0  0  0  0
   -1.3858    0.1813   -0.0372 C   0  0  0  0  0  0  0  0  0  0  0  0
   -2.7695   -1.3632   -0.8849 H   0  0  0  0  0  0  0  0  0  0  0  0
   -2.6722   -1.2433    0.8711 H   0  0  0  0  0  0  0  0  0  0  0  0
   -0.1641   -0.6875    0.0665 C   0  0  0  0  0  0  0  0  0  0  0  0
   -1.3919    0.7988    0.7925 H   0  0  0  0  0  0  0  0  0  0  0  0
   -1.3758    0.8782   -0.9953 H   0  0  0  0  0  0  0  0  0  0  0  0
   -0.2332   -1.2443    0.9480 H   0  0  0  0  0  0  0  0  0  0  0  0
    0.7690   -0.0816    0.1518 H   0  0  0  0  0  0  0  0  0  0  0  0
   -0.0825   -1.3885   -0.7926 H   0  0  0  0  0  0  0  0  0  0  0  0
  1  3  1  0  0  0  0
  1  5  1  0  0  0  0
  2  1  1  0  0  0  0
  2  8  1  0  0  0  0
  4  1  1  0  0  0  0
  6  2  1  0  0  0  0
  6  9  1  0  0  0  0
  6 10  1  0  0  0  0
  7  2  1  0  0  0  0
  9 13  1  0  0  0  0
  9 12  1  0  0  0  0
 11  6  1  0  0  0  0
 14  9  1  0  0  0  0
M  END
$$$$
