butane_opt
 OpenBabel08242015413D

 14 13  0  0  0  0  0  0  0  0999 V2000
   -3.9392    0.2671    0.0501 C   0  0  0  0  0  0  0  0  0  0  0  0
   -2.7000   -0.6128   -0.0181 C   0  0  0  0  0  0  0  0  0  0  0  0
   -4.8808   -0.3306    0.1513 H   0  0  0  0  0  0  0  0  0  0  0  0
   -4.0458    0.8769   -0.8259 H   0  0  0  0  0  0  0  0  0  0  0  0
   -3.8114    0.8635    0.9036 H   0  0  0  0  0  0  0  0  0  0  0  0
   -1.4119    0.1924   -0.0151 C   0  0  0  0  0  0  0  0  0  0  0  0
   -2.7386   -1.3121   -0.8713 H   0  0  0  0  0  0  0  0  0  0  0  0
   -2.7114   -1.2502    0.9032 H   0  0  0  0  0  0  0  0  0  0  0  0
   -0.1648   -0.6998    0.0652 C   0  0  0  0  0  0  0  0  0  0  0  0
   -1.3779    0.8602    0.8231 H   0  0  0  0  0  0  0  0  0  0  0  0
   -1.3834    0.8531   -0.9180 H   0  0  0  0  0  0  0  0  0  0  0  0
   -0.1434   -1.3470    0.9900 H   0  0  0  0  0  0  0  0  0  0  0  0
    0.7388   -0.1112    0.0659 H   0  0  0  0  0  0  0  0  0  0  0  0
   -0.0840   -1.3375   -0.7687 H   0  0  0  0  0  0  0  0  0  0  0  0
  1  3  1  0  0  0  0
  1  5  1  0  0  0  0
  2  6  1  0  0  0  0
  2  1  1  0  0  0  0
  2  8  1  0  0  0  0
  4  1  1  0  0  0  0
  6  9  1  0  0  0  0
  6 10  1  0  0  0  0
  7  2  1  0  0  0  0
  9 13  1  0  0  0  0
  9 12  1  0  0  0  0
 11  6  1  0  0  0  0
 14  9  1  0  0  0  0
M  END
$$$$
