14
butane_opt
C  -3.936482   0.246697   0.036090
C  -2.697405  -0.589689   0.023782
H  -4.886119  -0.369058  -0.095680
H  -3.883525   0.756737  -0.764144
H  -3.982790   1.042933   0.980117
C  -1.414998   0.190845  -0.016011
H  -2.693294  -1.249441  -0.795780
H  -2.686329  -1.246845   0.927186
C  -0.162292  -0.700557   0.054299
H  -1.438467   0.811458   0.794827
H  -1.373751   0.844452  -0.907842
H  -0.136814  -1.362207   0.977424
H   0.742538  -0.119531  -0.036858
H  -0.142474  -1.357817  -0.807635
