butane_opt
 OpenBabel08242015413D

 14 13  0  0  0  0  0  0  0  0999 V2000
   -3.9470    0.2577    0.0152 C   0  0  0  0  0  0  0  0  0  0  0  0
   -2.7078   -0.6064    0.0464 C   0  0  0  0  0  0  0  0  0  0  0  0
   -4.8631   -0.3406    0.1048 H   0  0  0  0  0  0  0  0  0  0  0  0
   -3.9440    0.9080   -0.9266 H   0  0  0  0  0  0  0  0  0  0  0  0
   -3.9796    0.8693    0.8238 H   0  0  0  0  0  0  0  0  0  0  0  0
   -1.4023    0.1927    0.0062 C   0  0  0  0  0  0  0  0  0  0  0  0
   -2.7334   -1.2536   -0.7810 H   0  0  0  0  0  0  0  0  0  0  0  0
   -2.6855   -1.2974    0.9773 H   0  0  0  0  0  0  0  0  0  0  0  0
   -0.1518   -0.6907    0.0234 C   0  0  0  0  0  0  0  0  0  0  0  0
   -1.3974    0.9312    0.8774 H   0  0  0  0  0  0  0  0  0  0  0  0
   -1.3843    0.7919   -0.8698 H   0  0  0  0  0  0  0  0  0  0  0  0
   -0.1861   -1.2731    0.8834 H   0  0  0  0  0  0  0  0  0  0  0  0
    0.7181   -0.1425    0.1426 H   0  0  0  0  0  0  0  0  0  0  0  0
   -0.0583   -1.5110   -0.9019 H   0  0  0  0  0  0  0  0  0  0  0  0
  1  2  1  0  0  0  0
  1  3  1  0  0  0  0
  1  5  1  0  0  0  0
  2  8  1  0  0  0  0
  4  1  1  0  0  0  0
  6  9  1  0  0  0  0
  6  2  1  0  0  0  0
  6 10  1  0  0  0  0
  7  2  1  0  0  0  0
  9 13  1  0  0  0  0
  9 12  1  0  0  0  0
 11  6  1  0  0  0  0
 14  9  1  0  0  0  0
M  END
$$$$
