butane_opt
 OpenBabel08242015413D

 14 13  0  0  0  0  0  0  0  0999 V2000
   -3.9312    0.2672   -0.0107 C   0  0  0  0  0  0  0  0  0  0  0  0
   -2.7029   -0.6244    0.0633 C   0  0  0  0  0  0  0  0  0  0  0  0
   -4.8466   -0.3013   -0.0284 H   0  0  0  0  0  0  0  0  0  0  0  0
   -3.9739    0.9086   -0.9357 H   0  0  0  0  0  0  0  0  0  0  0  0
   -4.0017    0.9125    0.8188 H   0  0  0  0  0  0  0  0  0  0  0  0
   -1.4122    0.1865    0.0576 C   0  0  0  0  0  0  0  0  0  0  0  0
   -2.6383   -1.3279   -0.7928 H   0  0  0  0  0  0  0  0  0  0  0  0
   -2.7470   -1.2646    0.9736 H   0  0  0  0  0  0  0  0  0  0  0  0
   -0.1614   -0.6903    0.0041 C   0  0  0  0  0  0  0  0  0  0  0  0
   -1.3887    0.8942    0.9268 H   0  0  0  0  0  0  0  0  0  0  0  0
   -1.4077    0.8025   -0.8124 H   0  0  0  0  0  0  0  0  0  0  0  0
   -0.0400   -1.3594    0.9409 H   0  0  0  0  0  0  0  0  0  0  0  0
    0.7748   -0.0705   -0.1737 H   0  0  0  0  0  0  0  0  0  0  0  0
   -0.2633   -1.3295   -0.8504 H   0  0  0  0  0  0  0  0  0  0  0  0
  1  2  1  0  0  0  0
  1  5  1  0  0  0  0
  2  8  1  0  0  0  0
  3  1  1  0  0  0  0
  4  1  1  0  0  0  0
  6  2  1  0  0  0  0
  6 10  1  0  0  0  0
  7  2  1  0  0  0  0
  9  6  1  0  0  0  0
  9 12  1  0  0  0  0
 11  6  1  0  0  0  0
 13  9  1  0  0  0  0
 14  9  1  0  0  0  0
M  END
$$$$
