14
butane_opt
C  -3.961527   0.276788   0.036681
C  -2.690738  -0.628095   0.040049
H  -4.868255  -0.329995  -0.084678
H  -3.966714   0.828174  -0.826985
H  -4.047239   1.012580   0.934972
C  -1.395769   0.172763  -0.012614
H  -2.700151  -1.327264  -0.834104
H  -2.718686  -1.228273   0.934850
C  -0.156512  -0.677060   0.041231
H  -1.357314   0.797623   0.799753
H  -1.388189   0.818486  -0.922850
H  -0.192574  -1.335321   0.942535
H   0.760167  -0.076891   0.061399
H  -0.091171  -1.362733  -0.819570
