14
butane_opt
C  -3.930059   0.255206   0.029401
C  -2.706061  -0.598294   0.033995
H  -4.847305  -0.354029  -0.070607
H  -3.924661   0.742166  -0.787047
H  -3.952428   1.046105   0.946895
C  -1.410234   0.196736  -0.005243
H  -2.716958  -1.271041  -0.827957
H  -2.731853  -1.257832   0.937784
C  -0.156598  -0.710974   0.038391
H  -1.426527   0.827609   0.803949
H  -1.370999   0.849689  -0.907558
H  -0.185125  -1.361103   0.976320
H   0.750007  -0.109051   0.012289
H  -0.170152  -1.303811  -0.785101
