14
butane_opt
C  -3.940235   0.265788   0.008621
C  -2.697672  -0.615131   0.051454
H  -4.837981  -0.294528  -0.046033
H  -3.932412   0.823726  -0.827032
H  -4.000007   0.973011   0.903289
C  -1.406384   0.180603   0.010239
H  -2.697731  -1.269348  -0.802680
H  -2.731541  -1.275619   0.981625
C  -0.161719  -0.695351   0.026788
H  -1.400727   0.875556   0.876765
H  -1.345437   0.815324  -0.885373
H  -0.134177  -1.320849   0.939237
H   0.779619  -0.078542  -0.000020
H  -0.248324  -1.355229  -0.858391
