butane_opt
 OpenBabel08242015413D

 14 13  0  0  0  0  0  0  0  0999 V2000
   -3.9409    0.2723    0.0606 C   0  0  0  0  0  0  0  0  0  0  0  0
   -2.6912   -0.6248    0.0088 C   0  0  0  0  0  0  0  0  0  0  0  0
   -4.8360   -0.2941    0.0712 H   0  0  0  0  0  0  0  0  0  0  0  0
   -4.0274    0.8876   -0.8575 H   0  0  0  0  0  0  0  0  0  0  0  0
   -3.9629    0.9243    0.9126 H   0  0  0  0  0  0  0  0  0  0  0  0
   -1.4009    0.1750   -0.0343 C   0  0  0  0  0  0  0  0  0  0  0  0
   -2.7081   -1.3593   -0.8757 H   0  0  0  0  0  0  0  0  0  0  0  0
   -2.6193   -1.2352    0.8705 H   0  0  0  0  0  0  0  0  0  0  0  0
   -0.1766   -0.6809    0.0659 C   0  0  0  0  0  0  0  0  0  0  0  0
   -1.4267    0.8294    0.7737 H   0  0  0  0  0  0  0  0  0  0  0  0
   -1.3096    0.8370   -0.9715 H   0  0  0  0  0  0  0  0  0  0  0  0
   -0.2330   -1.2795    0.9746 H   0  0  0  0  0  0  0  0  0  0  0  0
    0.7289   -0.0749    0.1562 H   0  0  0  0  0  0  0  0  0  0  0  0
   -0.1133   -1.4075   -0.8351 H   0  0  0  0  0  0  0  0  0  0  0  0
  1  3  1  0  0  0  0
  1  5  1  0  0  0  0
  2  1  1  0  0  0  0
  2  8  1  0  0  0  0
  4  1  1  0  0  0  0
  6  2  1  0  0  0  0
  6  9  1  0  0  0  0
  6 10  1  0  0  0  0
  7  2  1  0  0  0  0
  9 13  1  0  0  0  0
  9 12  1  0  0  0  0
 11  6  1  0  0  0  0
 14  9  1  0  0  0  0
M  END
$$$$
