butane_opt
 OpenBabel08242015413D

 14 13  0  0  0  0  0  0  0  0999 V2000
   -3.9333    0.2534   -0.0110 C   0  0  0  0  0  0  0  0  0  0  0  0
   -2.7206   -0.6121    0.0657 C   0  0  0  0  0  0  0  0  0  0  0  0
   -4.8606   -0.3455    0.0900 H   0  0  0  0  0  0  0  0  0  0  0  0
   -3.9936    0.9510   -0.9474 H   0  0  0  0  0  0  0  0  0  0  0  0
   -3.9837    0.8611    0.7978 H   0  0  0  0  0  0  0  0  0  0  0  0
   -1.4025    0.2034    0.0340 C   0  0  0  0  0  0  0  0  0  0  0  0
   -2.7327   -1.2172   -0.7528 H   0  0  0  0  0  0  0  0  0  0  0  0
   -2.7672   -1.2790    0.9931 H   0  0  0  0  0  0  0  0  0  0  0  0
   -0.1449   -0.7037    0.0033 C   0  0  0  0  0  0  0  0  0  0  0  0
   -1.3374    0.9367    0.9466 H   0  0  0  0  0  0  0  0  0  0  0  0
   -1.4691    0.8091   -0.8354 H   0  0  0  0  0  0  0  0  0  0  0  0
   -0.1379   -1.2509    0.8592 H   0  0  0  0  0  0  0  0  0  0  0  0
    0.7336   -0.1389    0.0706 H   0  0  0  0  0  0  0  0  0  0  0  0
   -0.0541   -1.5000   -0.9020 H   0  0  0  0  0  0  0  0  0  0  0  0
  1  2  1  0  0  0  0
  1  3  1  0  0  0  0
  1  5  1  0  0  0  0
  2  8  1  0  0  0  0
  4  1  1  0  0  0  0
  6  2  1  0  0  0  0
  6 10  1  0  0  0  0
  7  2  1  0  0  0  0
  9  6  1  0  0  0  0
  9 13  1  0  0  0  0
  9 12  1  0  0  0  0
 11  6  1  0  0  0  0
 14  9  1  0  0  0  0
M  END
$$$$
