butane_opt
 OpenBabel08242015413D

 14 13  0  0  0  0  0  0  0  0999 V2000
   -3.9291    0.2601    0.0364 C   0  0  0  0  0  0  0  0  0  0  0  0
   -2.6966   -0.6127    0.0108 C   0  0  0  0  0  0  0  0  0  0  0  0
   -4.8442   -0.3222    0.1644 H   0  0  0  0  0  0  0  0  0  0  0  0
   -4.0358    0.9327   -0.8732 H   0  0  0  0  0  0  0  0  0  0  0  0
   -3.8784    0.8683    0.8505 H   0  0  0  0  0  0  0  0  0  0  0  0
   -1.4115    0.1902    0.0014 C   0  0  0  0  0  0  0  0  0  0  0  0
   -2.7002   -1.3251   -0.8694 H   0  0  0  0  0  0  0  0  0  0  0  0
   -2.7380   -1.2252    0.8947 H   0  0  0  0  0  0  0  0  0  0  0  0
   -0.1694   -0.6931    0.0478 C   0  0  0  0  0  0  0  0  0  0  0  0
   -1.4432    0.8302    0.8202 H   0  0  0  0  0  0  0  0  0  0  0  0
   -1.4187    0.8169   -0.9232 H   0  0  0  0  0  0  0  0  0  0  0  0
   -0.1370   -1.3096    0.9259 H   0  0  0  0  0  0  0  0  0  0  0  0
    0.7431   -0.0896    0.1004 H   0  0  0  0  0  0  0  0  0  0  0  0
   -0.0989   -1.3751   -0.8074 H   0  0  0  0  0  0  0  0  0  0  0  0
  1  3  1  0  0  0  0
  1  5  1  0  0  0  0
  2  1  1  0  0  0  0
  2  8  1  0  0  0  0
  4  1  1  0  0  0  0
  6  2  1  0  0  0  0
  6  9  1  0  0  0  0
  6 10  1  0  0  0  0
  7  2  1  0  0  0  0
  9 13  1  0  0  0  0
  9 12  1  0  0  0  0
 11  6  1  0  0  0  0
 14  9  1  0  0  0  0
M  END
$$$$
