butane_opt
 OpenBabel08242015413D

 14 13  0  0  0  0  0  0  0  0999 V2000
   -3.9370    0.2713    0.0373 C   0  0  0  0  0  0  0  0  0  0  0  0
   -2.6887   -0.6281    0.0102 C   0  0  0  0  0  0  0  0  0  0  0  0
   -4.7922   -0.2802   -0.0438 H   0  0  0  0  0  0  0  0  0  0  0  0
   -3.9695    0.7500   -0.7582 H   0  0  0  0  0  0  0  0  0  0  0  0
   -4.0181    1.0860    0.9977 H   0  0  0  0  0  0  0  0  0  0  0  0
   -1.4061    0.1681   -0.0108 C   0  0  0  0  0  0  0  0  0  0  0  0
   -2.6887   -1.2883   -0.8278 H   0  0  0  0  0  0  0  0  0  0  0  0
   -2.7205   -1.2676    0.9211 H   0  0  0  0  0  0  0  0  0  0  0  0
   -0.1804   -0.6850    0.0539 C   0  0  0  0  0  0  0  0  0  0  0  0
   -1.3760    0.8341    0.8288 H   0  0  0  0  0  0  0  0  0  0  0  0
   -1.3952    0.8541   -0.9625 H   0  0  0  0  0  0  0  0  0  0  0  0
   -0.1453   -1.3601    1.0140 H   0  0  0  0  0  0  0  0  0  0  0  0
    0.7774   -0.0587   -0.0553 H   0  0  0  0  0  0  0  0  0  0  0  0
   -0.1578   -1.2485   -0.7332 H   0  0  0  0  0  0  0  0  0  0  0  0
  1  5  1  0  0  0  0
  2  1  1  0  0  0  0
  2  8  1  0  0  0  0
  3  1  1  0  0  0  0
  4  1  1  0  0  0  0
  6  2  1  0  0  0  0
  6  9  1  0  0  0  0
  6 10  1  0  0  0  0
  7  2  1  0  0  0  0
  9 12  1  0  0  0  0
 11  6  1  0  0  0  0
 13  9  1  0  0  0  0
 14  9  1  0  0  0  0
M  END
$$$$
