butane_opt
 OpenBabel08242015413D

 14 13  0  0  0  0  0  0  0  0999 V2000
   -3.9299    0.2551    0.0352 C   0  0  0  0  0  0  0  0  0  0  0  0
   -2.7053   -0.6011    0.0253 C   0  0  0  0  0  0  0  0  0  0  0  0
   -4.8674   -0.3554   -0.0966 H   0  0  0  0  0  0  0  0  0  0  0  0
   -3.8931    0.7280   -0.7889 H   0  0  0  0  0  0  0  0  0  0  0  0
   -3.9611    1.0413    0.9987 H   0  0  0  0  0  0  0  0  0  0  0  0
   -1.4060    0.1964   -0.0183 C   0  0  0  0  0  0  0  0  0  0  0  0
   -2.7479   -1.2549   -0.8112 H   0  0  0  0  0  0  0  0  0  0  0  0
   -2.7005   -1.2366    0.9199 H   0  0  0  0  0  0  0  0  0  0  0  0
   -0.1721   -0.6998    0.0544 C   0  0  0  0  0  0  0  0  0  0  0  0
   -1.3831    0.8595    0.7966 H   0  0  0  0  0  0  0  0  0  0  0  0
   -1.4147    0.8335   -0.9107 H   0  0  0  0  0  0  0  0  0  0  0  0
   -0.1014   -1.3973    1.0109 H   0  0  0  0  0  0  0  0  0  0  0  0
    0.7244   -0.1412   -0.0471 H   0  0  0  0  0  0  0  0  0  0  0  0
   -0.1185   -1.3617   -0.7728 H   0  0  0  0  0  0  0  0  0  0  0  0
  1  5  1  0  0  0  0
  2  1  1  0  0  0  0
  2  8  1  0  0  0  0
  3  1  1  0  0  0  0
  4  1  1  0  0  0  0
  6  2  1  0  0  0  0
  6  9  1  0  0  0  0
  6 10  1  0  0  0  0
  7  2  1  0  0  0  0
  9 12  1  0  0  0  0
 11  6  1  0  0  0  0
 13  9  1  0  0  0  0
 14  9  1  0  0  0  0
M  END
$$$$
