butane_opt
 OpenBabel08242015413D

 14 13  0  0  0  0  0  0  0  0999 V2000
   -3.9595    0.2771    0.0338 C   0  0  0  0  0  0  0  0  0  0  0  0
   -2.6983   -0.6347    0.0220 C   0  0  0  0  0  0  0  0  0  0  0  0
   -4.8408   -0.2975   -0.0195 H   0  0  0  0  0  0  0  0  0  0  0  0
   -3.9818    0.8288   -0.8189 H   0  0  0  0  0  0  0  0  0  0  0  0
   -4.0259    1.0109    0.9553 H   0  0  0  0  0  0  0  0  0  0  0  0
   -1.3959    0.1724   -0.0052 C   0  0  0  0  0  0  0  0  0  0  0  0
   -2.7069   -1.3513   -0.8552 H   0  0  0  0  0  0  0  0  0  0  0  0
   -2.7053   -1.2380    0.9071 H   0  0  0  0  0  0  0  0  0  0  0  0
   -0.1469   -0.6799    0.0563 C   0  0  0  0  0  0  0  0  0  0  0  0
   -1.4307    0.8578    0.8295 H   0  0  0  0  0  0  0  0  0  0  0  0
   -1.3527    0.8369   -0.9396 H   0  0  0  0  0  0  0  0  0  0  0  0
   -0.1270   -1.3454    0.9724 H   0  0  0  0  0  0  0  0  0  0  0  0
    0.7584   -0.0925   -0.1001 H   0  0  0  0  0  0  0  0  0  0  0  0
   -0.2031   -1.2952   -0.7649 H   0  0  0  0  0  0  0  0  0  0  0  0
  1  5  1  0  0  0  0
  2  1  1  0  0  0  0
  2  8  1  0  0  0  0
  3  1  1  0  0  0  0
  4  1  1  0  0  0  0
  6  2  1  0  0  0  0
  6  9  1  0  0  0  0
  6 10  1  0  0  0  0
  7  2  1  0  0  0  0
  9 12  1  0  0  0  0
 11  6  1  0  0  0  0
 13  9  1  0  0  0  0
 14  9  1  0  0  0  0
M  END
$$$$
