butane_opt
 OpenBabel08242015413D

 14 13  0  0  0  0  0  0  0  0999 V2000
   -3.9251    0.2542   -0.0091 C   0  0  0  0  0  0  0  0  0  0  0  0
   -2.6942   -0.6061    0.0834 C   0  0  0  0  0  0  0  0  0  0  0  0
   -4.8634   -0.3486    0.0316 H   0  0  0  0  0  0  0  0  0  0  0  0
   -3.9489    0.8752   -0.9218 H   0  0  0  0  0  0  0  0  0  0  0  0
   -3.9524    0.8764    0.7995 H   0  0  0  0  0  0  0  0  0  0  0  0
   -1.4204    0.1928    0.0267 C   0  0  0  0  0  0  0  0  0  0  0  0
   -2.6948   -1.2644   -0.7405 H   0  0  0  0  0  0  0  0  0  0  0  0
   -2.7516   -1.2025    0.9737 H   0  0  0  0  0  0  0  0  0  0  0  0
   -0.1656   -0.7005    0.0044 C   0  0  0  0  0  0  0  0  0  0  0  0
   -1.3988    0.8620    0.8770 H   0  0  0  0  0  0  0  0  0  0  0  0
   -1.4102    0.8413   -0.8902 H   0  0  0  0  0  0  0  0  0  0  0  0
   -0.1455   -1.1859    0.8251 H   0  0  0  0  0  0  0  0  0  0  0  0
    0.7108   -0.1509    0.1448 H   0  0  0  0  0  0  0  0  0  0  0  0
   -0.0993   -1.4738   -0.9372 H   0  0  0  0  0  0  0  0  0  0  0  0
  1  3  1  0  0  0  0
  1  2  1  0  0  0  0
  1  5  1  0  0  0  0
  2  8  1  0  0  0  0
  4  1  1  0  0  0  0
  6  2  1  0  0  0  0
  6 10  1  0  0  0  0
  7  2  1  0  0  0  0
  9  6  1  0  0  0  0
  9 13  1  0  0  0  0
  9 12  1  0  0  0  0
 11  6  1  0  0  0  0
 14  9  1  0  0  0  0
M  END
$$$$
