butane_opt
 OpenBabel08242015413D

 14 13  0  0  0  0  0  0  0  0999 V2000
   -3.9578    0.2791    0.0516 C   0  0  0  0  0  0  0  0  0  0  0  0
   -2.6943   -0.6287   -0.0083 C   0  0  0  0  0  0  0  0  0  0  0  0
   -4.8514   -0.3108    0.1751 H   0  0  0  0  0  0  0  0  0  0  0  0
   -4.0651    0.9173   -0.8670 H   0  0  0  0  0  0  0  0  0  0  0  0
   -3.8448    0.9055    0.9238 H   0  0  0  0  0  0  0  0  0  0  0  0
   -1.4005    0.1794   -0.0273 C   0  0  0  0  0  0  0  0  0  0  0  0
   -2.7530   -1.3401   -0.8982 H   0  0  0  0  0  0  0  0  0  0  0  0
   -2.6798   -1.2713    0.8727 H   0  0  0  0  0  0  0  0  0  0  0  0
   -0.1633   -0.6821    0.0689 C   0  0  0  0  0  0  0  0  0  0  0  0
   -1.4407    0.8461    0.8379 H   0  0  0  0  0  0  0  0  0  0  0  0
   -1.2847    0.7887   -0.9269 H   0  0  0  0  0  0  0  0  0  0  0  0
   -0.1568   -1.3164    0.9987 H   0  0  0  0  0  0  0  0  0  0  0  0
    0.7497   -0.0871    0.0729 H   0  0  0  0  0  0  0  0  0  0  0  0
   -0.1193   -1.3606   -0.7781 H   0  0  0  0  0  0  0  0  0  0  0  0
  1  3  1  0  0  0  0
  1  5  1  0  0  0  0
  2  1  1  0  0  0  0
  2  8  1  0  0  0  0
  4  1  1  0  0  0  0
  6  2  1  0  0  0  0
  6  9  1  0  0  0  0
  6 10  1  0  0  0  0
  7  2  1  0  0  0  0
  9 13  1  0  0  0  0
  9 12  1  0  0  0  0
 11  6  1  0  0  0  0
 14  9  1  0  0  0  0
M  END
$$$$
