14
butane_opt
C  -3.954957   0.275977   0.046950
C  -2.698974  -0.637257   0.009508
H  -4.832446  -0.278672   0.017936
H  -4.026197   0.844214  -0.802056
H  -3.988571   1.023681   0.969711
C  -1.392969   0.181878  -0.037214
H  -2.774710  -1.281785  -0.796050
H  -2.681593  -1.286953   0.916348
C  -0.159350  -0.691393   0.065511
H  -1.378208   0.829433   0.797657
H  -1.343089   0.814306  -0.952509
H  -0.183680  -1.246404   0.908592
H   0.785936  -0.071053   0.145302
H  -0.128447  -1.360110  -0.779109
