butane_opt
 OpenBabel08242015413D

 14 13  0  0  0  0  0  0  0  0999 V2000
   -3.9372    0.2509   -0.0063 C   0  0  0  0  0  0  0  0  0  0  0  0
   -2.7055   -0.5975    0.0727 C   0  0  0  0  0  0  0  0  0  0  0  0
   -4.8677   -0.3816   -0.0191 H   0  0  0  0  0  0  0  0  0  0  0  0
   -3.9260    0.8825   -0.9425 H   0  0  0  0  0  0  0  0  0  0  0  0
   -3.9772    0.9342    0.8487 H   0  0  0  0  0  0  0  0  0  0  0  0
   -1.4169    0.1889    0.0280 C   0  0  0  0  0  0  0  0  0  0  0  0
   -2.6932   -1.2172   -0.7383 H   0  0  0  0  0  0  0  0  0  0  0  0
   -2.7300   -1.2679    1.0030 H   0  0  0  0  0  0  0  0  0  0  0  0
   -0.1469   -0.7008    0.0012 C   0  0  0  0  0  0  0  0  0  0  0  0
   -1.3350    0.8905    0.8980 H   0  0  0  0  0  0  0  0  0  0  0  0
   -1.4755    0.7962   -0.8168 H   0  0  0  0  0  0  0  0  0  0  0  0
   -0.1607   -1.2662    0.8748 H   0  0  0  0  0  0  0  0  0  0  0  0
    0.7456   -0.1352    0.0888 H   0  0  0  0  0  0  0  0  0  0  0  0
   -0.1128   -1.4161   -0.9064 H   0  0  0  0  0  0  0  0  0  0  0  0
  1  2  1  0  0  0  0
  1  5  1  0  0  0  0
  2  8  1  0  0  0  0
  3  1  1  0  0  0  0
  4  1  1  0  0  0  0
  6  2  1  0  0  0  0
  6 10  1  0  0  0  0
  7  2  1  0  0  0  0
  9  6  1  0  0  0  0
  9 13  1  0  0  0  0
  9 12  1  0  0  0  0
 11  6  1  0  0  0  0
 14  9  1  0  0  0  0
M  END
$$$$
