butane_opt
 OpenBabel08242015413D

 14 13  0  0  0  0  0  0  0  0999 V2000
   -3.9385    0.2595   -0.0095 C   0  0  0  0  0  0  0  0  0  0  0  0
   -2.7073   -0.6139    0.0773 C   0  0  0  0  0  0  0  0  0  0  0  0
   -4.8808   -0.3539    0.0328 H   0  0  0  0  0  0  0  0  0  0  0  0
   -3.8955    0.9137   -0.9057 H   0  0  0  0  0  0  0  0  0  0  0  0
   -3.9797    0.9168    0.8339 H   0  0  0  0  0  0  0  0  0  0  0  0
   -1.4100    0.2028    0.0194 C   0  0  0  0  0  0  0  0  0  0  0  0
   -2.7032   -1.2568   -0.7645 H   0  0  0  0  0  0  0  0  0  0  0  0
   -2.7301   -1.3057    1.0054 H   0  0  0  0  0  0  0  0  0  0  0  0
   -0.1628   -0.7029    0.0080 C   0  0  0  0  0  0  0  0  0  0  0  0
   -1.3085    0.8994    0.8743 H   0  0  0  0  0  0  0  0  0  0  0  0
   -1.4212    0.7973   -0.8239 H   0  0  0  0  0  0  0  0  0  0  0  0
   -0.1461   -1.2245    0.8371 H   0  0  0  0  0  0  0  0  0  0  0  0
    0.7339   -0.1248    0.1215 H   0  0  0  0  0  0  0  0  0  0  0  0
   -0.0652   -1.4890   -0.9199 H   0  0  0  0  0  0  0  0  0  0  0  0
  1  3  1  0  0  0  0
  1  2  1  0  0  0  0
  1  5  1  0  0  0  0
  2  8  1  0  0  0  0
  4  1  1  0  0  0  0
  6  2  1  0  0  0  0
  6 10  1  0  0  0  0
  7  2  1  0  0  0  0
  9  6  1  0  0  0  0
  9 13  1  0  0  0  0
  9 12  1  0  0  0  0
 11  6  1  0  0  0  0
 14  9  1  0  0  0  0
M  END
$$$$
