14
butane_opt
C  -3.948437   0.270372  -0.007055
C  -2.700364  -0.617783   0.064355
H  -4.861045  -0.324403  -0.017668
H  -3.970406   0.941011  -0.950172
H  -4.045093   0.866416   0.833887
C  -1.397320   0.185998   0.042534
H  -2.705581  -1.263970  -0.769431
H  -2.722293  -1.304676   0.986788
C  -0.163497  -0.693658   0.000793
H  -1.294012   0.912891   0.925348
H  -1.385112   0.731119  -0.775726
H  -0.099834  -1.313953   0.895396
H   0.744112  -0.098687  -0.044284
H  -0.161551  -1.353990  -0.859327
