14
butane_opt
C  -3.928639   0.250038  -0.022185
C  -2.704976  -0.603881   0.092168
H  -4.807645  -0.348466  -0.041706
H  -3.886333   0.887710  -0.934644
H  -3.973428   0.976410   0.863561
C  -1.416370   0.196816   0.041673
H  -2.710768  -1.276354  -0.767497
H  -2.784493  -1.255491   1.006110
C  -0.161434  -0.703429  -0.002167
H  -1.383823   0.870376   0.914053
H  -1.410502   0.815556  -0.841429
H  -0.117265  -1.278411   0.851336
H   0.734340  -0.118646  -0.018485
H  -0.145463  -1.417050  -0.909813
