14
butane_opt
C  -3.948288   0.257881   0.032214
C  -2.701264  -0.610035   0.031845
H  -4.863985  -0.346620  -0.058251
H  -3.885861   0.787536  -0.815156
H  -3.996647   1.039570   0.963927
C  -1.404996   0.203885  -0.008502
H  -2.710212  -1.302687  -0.826488
H  -2.744211  -1.272579   0.946152
C  -0.161263  -0.707189   0.048056
H  -1.370668   0.821772   0.808607
H  -1.347048   0.878527  -0.925581
H  -0.126370  -1.346304   0.955918
H   0.744239  -0.110516   0.012019
H  -0.129004  -1.359494  -0.848243
