14
butane_opt
C  -3.948145   0.266120   0.043060
C  -2.697785  -0.617682   0.008129
H  -4.875868  -0.348068   0.116361
H  -4.040961   0.905840  -0.870447
H  -3.885498   0.884341   0.909862
C  -1.395585   0.202948  -0.024349
H  -2.790241  -1.314805  -0.851259
H  -2.693565  -1.221644   0.908584
C  -0.166450  -0.701604   0.057732
H  -1.421634   0.875152   0.827051
H  -1.334381   0.771310  -0.885960
H  -0.156441  -1.324551   0.958305
H   0.731723  -0.117482   0.091911
H  -0.059808  -1.375973  -0.793619
