butane_opt
 OpenBabel08242015413D

 14 13  0  0  0  0  0  0  0  0999 V2000
   -3.9565    0.2660    0.0365 C   0  0  0  0  0  0  0  0  0  0  0  0
   -2.7081   -0.6163    0.0199 C   0  0  0  0  0  0  0  0  0  0  0  0
   -4.8515   -0.2830   -0.0382 H   0  0  0  0  0  0  0  0  0  0  0  0
   -3.9931    0.7334   -0.7661 H   0  0  0  0  0  0  0  0  0  0  0  0
   -4.0236    1.1100    0.9928 H   0  0  0  0  0  0  0  0  0  0  0  0
   -1.3904    0.1707   -0.0234 C   0  0  0  0  0  0  0  0  0  0  0  0
   -2.6812   -1.2998   -0.8326 H   0  0  0  0  0  0  0  0  0  0  0  0
   -2.7355   -1.2717    0.9292 H   0  0  0  0  0  0  0  0  0  0  0  0
   -0.1554   -0.6949    0.0571 C   0  0  0  0  0  0  0  0  0  0  0  0
   -1.3795    0.8557    0.8244 H   0  0  0  0  0  0  0  0  0  0  0  0
   -1.3590    0.8600   -0.9283 H   0  0  0  0  0  0  0  0  0  0  0  0
   -0.1393   -1.3578    0.9715 H   0  0  0  0  0  0  0  0  0  0  0  0
    0.7863   -0.0607   -0.0271 H   0  0  0  0  0  0  0  0  0  0  0  0
   -0.1219   -1.2652   -0.7388 H   0  0  0  0  0  0  0  0  0  0  0  0
  1  5  1  0  0  0  0
  2  1  1  0  0  0  0
  2  8  1  0  0  0  0
  3  1  1  0  0  0  0
  4  1  1  0  0  0  0
  6  2  1  0  0  0  0
  6  9  1  0  0  0  0
  6 10  1  0  0  0  0
  7  2  1  0  0  0  0
  9 12  1  0  0  0  0
 11  6  1  0  0  0  0
 13  9  1  0  0  0  0
 14  9  1  0  0  0  0
M  END
$$$$
