14
butane_opt
C  -3.944759   0.254738   0.034796
C  -2.716379  -0.616559   0.021857
H  -4.839819  -0.315471  -0.047173
H  -3.978646   0.740047  -0.756743
H  -3.970998   1.040523   0.988723
C  -1.397869   0.205339  -0.016739
H  -2.724581  -1.252438  -0.830802
H  -2.731840  -1.223147   0.913854
C  -0.144026  -0.709216   0.048418
H  -1.433248   0.861145   0.813849
H  -1.365360   0.868420  -0.928119
H  -0.176498  -1.371147   1.014843
H   0.732684  -0.148000  -0.013581
H  -0.088022  -1.297851  -0.761761
