butane_opt
 OpenBabel08242015413D

 14 13  0  0  0  0  0  0  0  0999 V2000
   -3.9521    0.2751    0.0396 C   0  0  0  0  0  0  0  0  0  0  0  0
   -2.7009   -0.6336    0.0084 C   0  0  0  0  0  0  0  0  0  0  0  0
   -4.8364   -0.3066    0.1276 H   0  0  0  0  0  0  0  0  0  0  0  0
   -3.9965    0.9041   -0.8281 H   0  0  0  0  0  0  0  0  0  0  0  0
   -3.9213    0.9835    0.9442 H   0  0  0  0  0  0  0  0  0  0  0  0
   -1.4005    0.1788   -0.0240 C   0  0  0  0  0  0  0  0  0  0  0  0
   -2.7303   -1.2880   -0.8402 H   0  0  0  0  0  0  0  0  0  0  0  0
   -2.6876   -1.2911    0.9028 H   0  0  0  0  0  0  0  0  0  0  0  0
   -0.1630   -0.6862    0.0585 C   0  0  0  0  0  0  0  0  0  0  0  0
   -1.3391    0.8187    0.8242 H   0  0  0  0  0  0  0  0  0  0  0  0
   -1.3534    0.8301   -0.9476 H   0  0  0  0  0  0  0  0  0  0  0  0
   -0.2277   -1.2531    0.9441 H   0  0  0  0  0  0  0  0  0  0  0  0
    0.7303   -0.0840    0.1469 H   0  0  0  0  0  0  0  0  0  0  0  0
   -0.0690   -1.3927   -0.8225 H   0  0  0  0  0  0  0  0  0  0  0  0
  1  3  1  0  0  0  0
  1  5  1  0  0  0  0
  2  1  1  0  0  0  0
  2  8  1  0  0  0  0
  4  1  1  0  0  0  0
  6  2  1  0  0  0  0
  6  9  1  0  0  0  0
  6 10  1  0  0  0  0
  7  2  1  0  0  0  0
  9 13  1  0  0  0  0
  9 12  1  0  0  0  0
 11  6  1  0  0  0  0
 14  9  1  0  0  0  0
M  END
$$$$
