14
butane_opt
C  -3.956457   0.269891  -0.001010
C  -2.701477  -0.612881   0.066745
H  -4.856758  -0.322029   0.054152
H  -3.993782   0.946740  -0.963895
H  -4.033453   0.813643   0.781995
C  -1.401896   0.181950   0.023829
H  -2.724727  -1.262506  -0.742317
H  -2.707812  -1.320346   1.016907
C  -0.146098  -0.692334   0.008512
H  -1.336699   0.900840   0.924138
H  -1.411995   0.764837  -0.850394
H  -0.165545  -1.167184   0.820196
H   0.773757  -0.084347   0.141070
H  -0.095503  -1.497178  -0.944018
