butane_opt
 OpenBabel08242015413D

 14 13  0  0  0  0  0  0  0  0999 V2000
   -3.9609    0.2730    0.0437 C   0  0  0  0  0  0  0  0  0  0  0  0
   -2.7022   -0.6232    0.0031 C   0  0  0  0  0  0  0  0  0  0  0  0
   -4.9009   -0.3353    0.0454 H   0  0  0  0  0  0  0  0  0  0  0  0
   -4.0072    0.8862   -0.8566 H   0  0  0  0  0  0  0  0  0  0  0  0
   -3.9753    0.9643    0.9329 H   0  0  0  0  0  0  0  0  0  0  0  0
   -1.3891    0.1815   -0.0030 C   0  0  0  0  0  0  0  0  0  0  0  0
   -2.7548   -1.3650   -0.8670 H   0  0  0  0  0  0  0  0  0  0  0  0
   -2.6392   -1.2133    0.8702 H   0  0  0  0  0  0  0  0  0  0  0  0
   -0.1579   -0.6933    0.0536 C   0  0  0  0  0  0  0  0  0  0  0  0
   -1.3749    0.8471    0.8413 H   0  0  0  0  0  0  0  0  0  0  0  0
   -1.3246    0.8489   -0.9265 H   0  0  0  0  0  0  0  0  0  0  0  0
   -0.1116   -1.3977    1.0059 H   0  0  0  0  0  0  0  0  0  0  0  0
    0.7782   -0.0990   -0.0293 H   0  0  0  0  0  0  0  0  0  0  0  0
   -0.1870   -1.2616   -0.7369 H   0  0  0  0  0  0  0  0  0  0  0  0
  1  3  1  0  0  0  0
  1  5  1  0  0  0  0
  2  1  1  0  0  0  0
  2  8  1  0  0  0  0
  4  1  1  0  0  0  0
  6  2  1  0  0  0  0
  6  9  1  0  0  0  0
  6 10  1  0  0  0  0
  7  2  1  0  0  0  0
  9 12  1  0  0  0  0
 11  6  1  0  0  0  0
 13  9  1  0  0  0  0
 14  9  1  0  0  0  0
M  END
$$$$
