butane_opt
 OpenBabel08242015413D

 14 13  0  0  0  0  0  0  0  0999 V2000
   -3.9457    0.2514    0.0395 C   0  0  0  0  0  0  0  0  0  0  0  0
   -2.7023   -0.6086    0.0038 C   0  0  0  0  0  0  0  0  0  0  0  0
   -4.8818   -0.3460   -0.0031 H   0  0  0  0  0  0  0  0  0  0  0  0
   -4.0167    0.8487   -0.8093 H   0  0  0  0  0  0  0  0  0  0  0  0
   -3.9527    0.9618    0.9334 H   0  0  0  0  0  0  0  0  0  0  0  0
   -1.4115    0.2128    0.0099 C   0  0  0  0  0  0  0  0  0  0  0  0
   -2.7100   -1.3506   -0.8703 H   0  0  0  0  0  0  0  0  0  0  0  0
   -2.7617   -1.1977    0.8653 H   0  0  0  0  0  0  0  0  0  0  0  0
   -0.1424   -0.7087    0.0516 C   0  0  0  0  0  0  0  0  0  0  0  0
   -1.4064    0.8368    0.8120 H   0  0  0  0  0  0  0  0  0  0  0  0
   -1.3771    0.8449   -0.9021 H   0  0  0  0  0  0  0  0  0  0  0  0
   -0.0613   -1.4696    1.0333 H   0  0  0  0  0  0  0  0  0  0  0  0
    0.7627   -0.1074   -0.1438 H   0  0  0  0  0  0  0  0  0  0  0  0
   -0.1866   -1.2536   -0.7162 H   0  0  0  0  0  0  0  0  0  0  0  0
  1  5  1  0  0  0  0
  2  6  1  0  0  0  0
  2  1  1  0  0  0  0
  2  8  1  0  0  0  0
  3  1  1  0  0  0  0
  4  1  1  0  0  0  0
  6  9  1  0  0  0  0
  6 10  1  0  0  0  0
  7  2  1  0  0  0  0
  9 12  1  0  0  0  0
 11  6  1  0  0  0  0
 13  9  1  0  0  0  0
 14  9  1  0  0  0  0
M  END
$$$$
