14
butane_opt
C  -3.936651   0.270875   0.003929
C  -2.687851  -0.630200   0.056431
H  -4.835855  -0.277844   0.112836
H  -4.017399   1.060167  -1.021099
H  -3.964231   0.825821   0.792041
C  -1.400036   0.170585   0.033609
H  -2.720019  -1.340634  -0.815740
H  -2.702523  -1.257676   0.946063
C  -0.179116  -0.684058   0.016596
H  -1.368753   0.907260   0.903955
H  -1.430532   0.772312  -0.841335
H  -0.141088  -1.208607   0.855699
H   0.763697  -0.050080   0.043303
H  -0.168101  -1.418448  -0.885957
