butane_opt
 OpenBabel08242015413D

 14 13  0  0  0  0  0  0  0  0999 V2000
   -3.9385    0.2814    0.0069 C   0  0  0  0  0  0  0  0  0  0  0  0
   -2.6895   -0.6278    0.0617 C   0  0  0  0  0  0  0  0  0  0  0  0
   -4.8787   -0.3427   -0.0739 H   0  0  0  0  0  0  0  0  0  0  0  0
   -3.8750    0.8456   -0.8693 H   0  0  0  0  0  0  0  0  0  0  0  0
   -4.0742    0.9852    0.8760 H   0  0  0  0  0  0  0  0  0  0  0  0
   -1.4106    0.1682    0.0170 C   0  0  0  0  0  0  0  0  0  0  0  0
   -2.6626   -1.2612   -0.7674 H   0  0  0  0  0  0  0  0  0  0  0  0
   -2.7005   -1.2936    1.0058 H   0  0  0  0  0  0  0  0  0  0  0  0
   -0.1705   -0.6822    0.0131 C   0  0  0  0  0  0  0  0  0  0  0  0
   -1.3611    0.8580    0.8659 H   0  0  0  0  0  0  0  0  0  0  0  0
   -1.3896    0.7421   -0.8414 H   0  0  0  0  0  0  0  0  0  0  0  0
   -0.1594   -1.2761    0.9302 H   0  0  0  0  0  0  0  0  0  0  0  0
    0.7701   -0.0453    0.0043 H   0  0  0  0  0  0  0  0  0  0  0  0
   -0.1846   -1.3617   -0.8680 H   0  0  0  0  0  0  0  0  0  0  0  0
  1  2  1  0  0  0  0
  1  5  1  0  0  0  0
  2  8  1  0  0  0  0
  3  1  1  0  0  0  0
  4  1  1  0  0  0  0
  6  2  1  0  0  0  0
  6 10  1  0  0  0  0
  7  2  1  0  0  0  0
  9  6  1  0  0  0  0
  9 12  1  0  0  0  0
 11  6  1  0  0  0  0
 13  9  1  0  0  0  0
 14  9  1  0  0  0  0
M  END
$$$$
