butane_opt
 OpenBabel08242015413D

 14 13  0  0  0  0  0  0  0  0999 V2000
   -3.9556    0.2729    0.0440 C   0  0  0  0  0  0  0  0  0  0  0  0
   -2.6968   -0.6265    0.0081 C   0  0  0  0  0  0  0  0  0  0  0  0
   -4.8613   -0.3010    0.0097 H   0  0  0  0  0  0  0  0  0  0  0  0
   -3.9226    0.8371   -0.8363 H   0  0  0  0  0  0  0  0  0  0  0  0
   -4.0236    0.9812    0.9491 H   0  0  0  0  0  0  0  0  0  0  0  0
   -1.3973    0.1835   -0.0021 C   0  0  0  0  0  0  0  0  0  0  0  0
   -2.7198   -1.3430   -0.8904 H   0  0  0  0  0  0  0  0  0  0  0  0
   -2.6944   -1.2119    0.8584 H   0  0  0  0  0  0  0  0  0  0  0  0
   -0.1706   -0.6907    0.0505 C   0  0  0  0  0  0  0  0  0  0  0  0
   -1.3633    0.8595    0.8473 H   0  0  0  0  0  0  0  0  0  0  0  0
   -1.3039    0.8219   -0.8975 H   0  0  0  0  0  0  0  0  0  0  0  0
   -0.0856   -1.4600    1.0541 H   0  0  0  0  0  0  0  0  0  0  0  0
    0.7708   -0.0752   -0.1229 H   0  0  0  0  0  0  0  0  0  0  0  0
   -0.1826   -1.2449   -0.7161 H   0  0  0  0  0  0  0  0  0  0  0  0
  1  5  1  0  0  0  0
  2  1  1  0  0  0  0
  2  8  1  0  0  0  0
  3  1  1  0  0  0  0
  4  1  1  0  0  0  0
  6  2  1  0  0  0  0
  6  9  1  0  0  0  0
  6 10  1  0  0  0  0
  7  2  1  0  0  0  0
  9 12  1  0  0  0  0
 11  6  1  0  0  0  0
 13  9  1  0  0  0  0
 14  9  1  0  0  0  0
M  END
$$$$
