butane_opt
 OpenBabel08242015413D

 14 13  0  0  0  0  0  0  0  0999 V2000
   -3.9366    0.2595   -0.0188 C   0  0  0  0  0  0  0  0  0  0  0  0
   -2.7013   -0.6036    0.0796 C   0  0  0  0  0  0  0  0  0  0  0  0
   -4.8686   -0.3870   -0.0889 H   0  0  0  0  0  0  0  0  0  0  0  0
   -3.8700    0.8262   -0.8874 H   0  0  0  0  0  0  0  0  0  0  0  0
   -4.0062    0.9535    0.8564 H   0  0  0  0  0  0  0  0  0  0  0  0
   -1.4079    0.1946    0.0439 C   0  0  0  0  0  0  0  0  0  0  0  0
   -2.6783   -1.2032   -0.7206 H   0  0  0  0  0  0  0  0  0  0  0  0
   -2.7312   -1.3078    1.0431 H   0  0  0  0  0  0  0  0  0  0  0  0
   -0.1708   -0.7103    0.0010 C   0  0  0  0  0  0  0  0  0  0  0  0
   -1.3408    0.9120    0.9095 H   0  0  0  0  0  0  0  0  0  0  0  0
   -1.4022    0.8325   -0.8600 H   0  0  0  0  0  0  0  0  0  0  0  0
   -0.0945   -1.2420    0.8396 H   0  0  0  0  0  0  0  0  0  0  0  0
    0.7540   -0.1103   -0.0409 H   0  0  0  0  0  0  0  0  0  0  0  0
   -0.1783   -1.4380   -0.8840 H   0  0  0  0  0  0  0  0  0  0  0  0
  1  2  1  0  0  0  0
  1  5  1  0  0  0  0
  2  8  1  0  0  0  0
  3  1  1  0  0  0  0
  4  1  1  0  0  0  0
  6  2  1  0  0  0  0
  6 10  1  0  0  0  0
  7  2  1  0  0  0  0
  9  6  1  0  0  0  0
  9 12  1  0  0  0  0
 11  6  1  0  0  0  0
 13  9  1  0  0  0  0
 14  9  1  0  0  0  0
M  END
$$$$
