14
butane_opt
C  -3.939397   0.279424   0.052052
C  -2.696980  -0.624920   0.000708
H  -4.843148  -0.319676   0.165147
H  -4.088976   0.962849  -0.886227
H  -3.912152   0.895641   0.857649
C  -1.402121   0.158699  -0.020177
H  -2.775802  -1.364594  -0.903412
H  -2.679251  -1.194857   0.854528
C  -0.165332  -0.678013   0.065280
H  -1.424332   0.864958   0.837297
H  -1.321845   0.803994  -0.917947
H  -0.191649  -1.331328   0.988694
H   0.798723  -0.056951   0.055545
H  -0.145393  -1.347069  -0.796522
