butane_opt
 OpenBabel08242015413D

 14 13  0  0  0  0  0  0  0  0999 V2000
   -3.9474    0.2516    0.0448 C   0  0  0  0  0  0  0  0  0  0  0  0
   -2.7064   -0.6098   -0.0014 C   0  0  0  0  0  0  0  0  0  0  0  0
   -4.8649   -0.3604    0.0567 H   0  0  0  0  0  0  0  0  0  0  0  0
   -4.0126    0.8214   -0.8281 H   0  0  0  0  0  0  0  0  0  0  0  0
   -3.9412    0.9483    0.9375 H   0  0  0  0  0  0  0  0  0  0  0  0
   -1.4074    0.2104   -0.0092 C   0  0  0  0  0  0  0  0  0  0  0  0
   -2.7575   -1.3189   -0.8782 H   0  0  0  0  0  0  0  0  0  0  0  0
   -2.6816   -1.1879    0.8377 H   0  0  0  0  0  0  0  0  0  0  0  0
   -0.1436   -0.7109    0.0616 C   0  0  0  0  0  0  0  0  0  0  0  0
   -1.4279    0.8924    0.8441 H   0  0  0  0  0  0  0  0  0  0  0  0
   -1.3776    0.8773   -0.9037 H   0  0  0  0  0  0  0  0  0  0  0  0
   -0.0547   -1.4493    1.0391 H   0  0  0  0  0  0  0  0  0  0  0  0
    0.7426   -0.1315   -0.0873 H   0  0  0  0  0  0  0  0  0  0  0  0
   -0.1782   -1.2638   -0.7129 H   0  0  0  0  0  0  0  0  0  0  0  0
  1  3  1  0  0  0  0
  1  5  1  0  0  0  0
  2  1  1  0  0  0  0
  2  8  1  0  0  0  0
  4  1  1  0  0  0  0
  6  2  1  0  0  0  0
  6  9  1  0  0  0  0
  6 10  1  0  0  0  0
  7  2  1  0  0  0  0
  9 12  1  0  0  0  0
 11  6  1  0  0  0  0
 13  9  1  0  0  0  0
 14  9  1  0  0  0  0
M  END
$$$$
