butane_opt
 OpenBabel08242015413D

 14 13  0  0  0  0  0  0  0  0999 V2000
   -3.9563    0.2776    0.0053 C   0  0  0  0  0  0  0  0  0  0  0  0
   -2.7019   -0.6362    0.0496 C   0  0  0  0  0  0  0  0  0  0  0  0
   -4.8198   -0.2817    0.0961 H   0  0  0  0  0  0  0  0  0  0  0  0
   -3.9887    1.0093   -0.9402 H   0  0  0  0  0  0  0  0  0  0  0  0
   -4.0364    0.8206    0.7716 H   0  0  0  0  0  0  0  0  0  0  0  0
   -1.3945    0.1857    0.0382 C   0  0  0  0  0  0  0  0  0  0  0  0
   -2.6991   -1.3512   -0.8172 H   0  0  0  0  0  0  0  0  0  0  0  0
   -2.7237   -1.2693    0.9333 H   0  0  0  0  0  0  0  0  0  0  0  0
   -0.1605   -0.6874    0.0120 C   0  0  0  0  0  0  0  0  0  0  0  0
   -1.3405    0.8965    0.9237 H   0  0  0  0  0  0  0  0  0  0  0  0
   -1.3542    0.7925   -0.8270 H   0  0  0  0  0  0  0  0  0  0  0  0
   -0.1075   -1.3007    0.8905 H   0  0  0  0  0  0  0  0  0  0  0  0
    0.7837   -0.0848   -0.0038 H   0  0  0  0  0  0  0  0  0  0  0  0
   -0.1848   -1.3670   -0.8568 H   0  0  0  0  0  0  0  0  0  0  0  0
  1  2  1  0  0  0  0
  1  3  1  0  0  0  0
  1  5  1  0  0  0  0
  2  8  1  0  0  0  0
  4  1  1  0  0  0  0
  6  2  1  0  0  0  0
  6 10  1  0  0  0  0
  7  2  1  0  0  0  0
  9  6  1  0  0  0  0
  9 12  1  0  0  0  0
 11  6  1  0  0  0  0
 13  9  1  0  0  0  0
 14  9  1  0  0  0  0
M  END
$$$$
