butane_opt
 OpenBabel08242015413D

 14 13  0  0  0  0  0  0  0  0999 V2000
   -3.9388    0.2795   -0.0079 C   0  0  0  0  0  0  0  0  0  0  0  0
   -2.6933   -0.6397    0.0873 C   0  0  0  0  0  0  0  0  0  0  0  0
   -4.8229   -0.2985   -0.1249 H   0  0  0  0  0  0  0  0  0  0  0  0
   -3.8816    0.8567   -0.8927 H   0  0  0  0  0  0  0  0  0  0  0  0
   -4.0873    0.9773    0.8515 H   0  0  0  0  0  0  0  0  0  0  0  0
   -1.4108    0.1799    0.0297 C   0  0  0  0  0  0  0  0  0  0  0  0
   -2.7031   -1.2951   -0.7473 H   0  0  0  0  0  0  0  0  0  0  0  0
   -2.6958   -1.2575    0.9811 H   0  0  0  0  0  0  0  0  0  0  0  0
   -0.1723   -0.6823    0.0116 C   0  0  0  0  0  0  0  0  0  0  0  0
   -1.3347    0.8456    0.8806 H   0  0  0  0  0  0  0  0  0  0  0  0
   -1.4274    0.7694   -0.8631 H   0  0  0  0  0  0  0  0  0  0  0  0
   -0.1267   -1.2596    0.8690 H   0  0  0  0  0  0  0  0  0  0  0  0
    0.7932   -0.0479   -0.0487 H   0  0  0  0  0  0  0  0  0  0  0  0
   -0.1691   -1.4014   -0.9156 H   0  0  0  0  0  0  0  0  0  0  0  0
  1  2  1  0  0  0  0
  1  5  1  0  0  0  0
  2  8  1  0  0  0  0
  3  1  1  0  0  0  0
  4  1  1  0  0  0  0
  6  2  1  0  0  0  0
  6 10  1  0  0  0  0
  7  2  1  0  0  0  0
  9  6  1  0  0  0  0
  9 12  1  0  0  0  0
 11  6  1  0  0  0  0
 13  9  1  0  0  0  0
 14  9  1  0  0  0  0
M  END
$$$$
