14
butane_opt
C  -3.935838   0.273974   0.053185
C  -2.699745  -0.617736  -0.011943
H  -4.829279  -0.310173   0.165088
H  -4.068743   0.933776  -0.840836
H  -3.853414   0.857373   0.879954
C  -1.406843   0.167340  -0.015064
H  -2.705019  -1.326338  -0.900329
H  -2.671144  -1.202981   0.859604
C  -0.169409  -0.682641   0.064969
H  -1.380397   0.807038   0.827639
H  -1.346609   0.835868  -0.925149
H  -0.225303  -1.334621   0.982521
H   0.731453  -0.085724   0.071898
H  -0.134467  -1.336062  -0.781033
