14
butane_opt
C  -3.950020   0.261857  -0.005919
C  -2.705745  -0.623139   0.070218
H  -4.837303  -0.286103   0.046789
H  -3.966750   0.967454  -0.958269
H  -4.024856   0.873520   0.837822
C  -1.402094   0.184033   0.024985
H  -2.698146  -1.254495  -0.725679
H  -2.731416  -1.317513   1.011742
C  -0.145332  -0.690531   0.002042
H  -1.362316   0.924089   0.904253
H  -1.420087   0.784539  -0.849926
H  -0.164943  -1.176122   0.824144
H   0.722334  -0.115411   0.165608
H  -0.098303  -1.462573  -0.928236
