14
butane_opt
C  -3.944515   0.282711   0.034638
C  -2.707502  -0.640953   0.000920
H  -4.821540  -0.279923   0.113060
H  -4.044201   0.851049  -0.799559
H  -3.958647   0.976641   0.908777
C  -1.393220   0.179229  -0.005128
H  -2.710741  -1.345225  -0.865362
H  -2.721477  -1.257982   0.852745
C  -0.159464  -0.686297   0.058407
H  -1.368913   0.874978   0.862490
H  -1.395616   0.811602  -0.893681
H  -0.123703  -1.397934   1.041399
H   0.756044  -0.059222  -0.094799
H  -0.188648  -1.253575  -0.731390
