14
butane_opt
C  -3.938737   0.246947   0.056612
C  -2.708329  -0.606308  -0.007918
H  -4.857973  -0.323058   0.129969
H  -4.021441   0.917112  -0.884712
H  -3.927373   0.894048   0.892505
C  -1.405676   0.202722  -0.013972
H  -2.798664  -1.278997  -0.890725
H  -2.723700  -1.179017   0.839789
C  -0.143993  -0.705016   0.061205
H  -1.440841   0.908183   0.843442
H  -1.354030   0.803356  -0.897566
H  -0.167366  -1.414590   1.027991
H   0.727937  -0.142937  -0.023555
H  -0.088789  -1.323592  -0.751302
