butane_opt
 OpenBabel08242015413D

 14 13  0  0  0  0  0  0  0  0999 V2000
   -3.9509    0.2691    0.0421 C   0  0  0  0  0  0  0  0  0  0  0  0
   -2.6993   -0.6314    0.0081 C   0  0  0  0  0  0  0  0  0  0  0  0
   -4.8408   -0.3118    0.1015 H   0  0  0  0  0  0  0  0  0  0  0  0
   -4.0676    0.9357   -0.8556 H   0  0  0  0  0  0  0  0  0  0  0  0
   -3.9006    0.9493    0.9209 H   0  0  0  0  0  0  0  0  0  0  0  0
   -1.3915    0.1863   -0.0051 C   0  0  0  0  0  0  0  0  0  0  0  0
   -2.7087   -1.3530   -0.8857 H   0  0  0  0  0  0  0  0  0  0  0  0
   -2.6961   -1.2253    0.8899 H   0  0  0  0  0  0  0  0  0  0  0  0
   -0.1679   -0.6897    0.0536 C   0  0  0  0  0  0  0  0  0  0  0  0
   -1.4031    0.8223    0.7978 H   0  0  0  0  0  0  0  0  0  0  0  0
   -1.3294    0.8792   -0.9621 H   0  0  0  0  0  0  0  0  0  0  0  0
   -0.1888   -1.3158    0.9520 H   0  0  0  0  0  0  0  0  0  0  0  0
    0.7484   -0.1028    0.0808 H   0  0  0  0  0  0  0  0  0  0  0  0
   -0.1174   -1.3609   -0.7876 H   0  0  0  0  0  0  0  0  0  0  0  0
  1  3  1  0  0  0  0
  1  5  1  0  0  0  0
  2  1  1  0  0  0  0
  2  8  1  0  0  0  0
  4  1  1  0  0  0  0
  6  2  1  0  0  0  0
  6  9  1  0  0  0  0
  6 10  1  0  0  0  0
  7  2  1  0  0  0  0
  9 13  1  0  0  0  0
  9 12  1  0  0  0  0
 11  6  1  0  0  0  0
 14  9  1  0  0  0  0
M  END
$$$$
