14
butane_opt
C  -3.937970   0.256769   0.001111
C  -2.687861  -0.610685   0.066492
H  -4.838331  -0.329219   0.055533
H  -3.932143   0.913093  -0.921178
H  -3.973723   0.892287   0.845059
C  -1.410792   0.185861   0.020552
H  -2.729606  -1.272145  -0.798653
H  -2.704608  -1.227143   0.955348
C  -0.168590  -0.697914   0.011459
H  -1.374974   0.825663   0.859800
H  -1.454562   0.836980  -0.868709
H  -0.196433  -1.185082   0.858258
H   0.727058  -0.112667   0.132323
H  -0.080068  -1.426770  -0.884512
