butane_opt
 OpenBabel08242015413D

 14 13  0  0  0  0  0  0  0  0999 V2000
   -3.9431    0.2765    0.0286 C   0  0  0  0  0  0  0  0  0  0  0  0
   -2.6884   -0.6205    0.0181 C   0  0  0  0  0  0  0  0  0  0  0  0
   -4.8553   -0.3181    0.1588 H   0  0  0  0  0  0  0  0  0  0  0  0
   -4.0421    0.8644   -0.8595 H   0  0  0  0  0  0  0  0  0  0  0  0
   -3.9473    0.9104    0.8850 H   0  0  0  0  0  0  0  0  0  0  0  0
   -1.3975    0.1682   -0.0062 C   0  0  0  0  0  0  0  0  0  0  0  0
   -2.6845   -1.3140   -0.8162 H   0  0  0  0  0  0  0  0  0  0  0  0
   -2.6831   -1.2716    0.9285 H   0  0  0  0  0  0  0  0  0  0  0  0
   -0.1765   -0.6780    0.0417 C   0  0  0  0  0  0  0  0  0  0  0  0
   -1.4165    0.8414    0.8335 H   0  0  0  0  0  0  0  0  0  0  0  0
   -1.3591    0.8374   -0.9225 H   0  0  0  0  0  0  0  0  0  0  0  0
   -0.2264   -1.2648    0.9464 H   0  0  0  0  0  0  0  0  0  0  0  0
    0.7381   -0.0899    0.1366 H   0  0  0  0  0  0  0  0  0  0  0  0
   -0.0836   -1.4199   -0.8427 H   0  0  0  0  0  0  0  0  0  0  0  0
  1  3  1  0  0  0  0
  1  5  1  0  0  0  0
  2  1  1  0  0  0  0
  2  8  1  0  0  0  0
  4  1  1  0  0  0  0
  6  2  1  0  0  0  0
  6  9  1  0  0  0  0
  6 10  1  0  0  0  0
  7  2  1  0  0  0  0
  9 13  1  0  0  0  0
  9 12  1  0  0  0  0
 11  6  1  0  0  0  0
 14  9  1  0  0  0  0
M  END
$$$$
