butane_opt
 OpenBabel08242015413D

 14 13  0  0  0  0  0  0  0  0999 V2000
   -3.9348    0.2651   -0.0012 C   0  0  0  0  0  0  0  0  0  0  0  0
   -2.6912   -0.6248    0.0615 C   0  0  0  0  0  0  0  0  0  0  0  0
   -4.8187   -0.3007   -0.0744 H   0  0  0  0  0  0  0  0  0  0  0  0
   -3.9747    0.7876   -0.8312 H   0  0  0  0  0  0  0  0  0  0  0  0
   -3.9620    1.0455    0.9185 H   0  0  0  0  0  0  0  0  0  0  0  0
   -1.4193    0.1784    0.0192 C   0  0  0  0  0  0  0  0  0  0  0  0
   -2.6995   -1.2621   -0.7988 H   0  0  0  0  0  0  0  0  0  0  0  0
   -2.7102   -1.2856    0.9670 H   0  0  0  0  0  0  0  0  0  0  0  0
   -0.1610   -0.6881    0.0224 C   0  0  0  0  0  0  0  0  0  0  0  0
   -1.3675    0.8653    0.8822 H   0  0  0  0  0  0  0  0  0  0  0  0
   -1.4077    0.8342   -0.8956 H   0  0  0  0  0  0  0  0  0  0  0  0
   -0.1549   -1.3143    0.9277 H   0  0  0  0  0  0  0  0  0  0  0  0
    0.7410   -0.0866   -0.0461 H   0  0  0  0  0  0  0  0  0  0  0  0
   -0.1923   -1.3250   -0.8220 H   0  0  0  0  0  0  0  0  0  0  0  0
  1  2  1  0  0  0  0
  1  5  1  0  0  0  0
  2  8  1  0  0  0  0
  3  1  1  0  0  0  0
  4  1  1  0  0  0  0
  6  9  1  0  0  0  0
  6  2  1  0  0  0  0
  6 10  1  0  0  0  0
  7  2  1  0  0  0  0
  9 12  1  0  0  0  0
 11  6  1  0  0  0  0
 13  9  1  0  0  0  0
 14  9  1  0  0  0  0
M  END
$$$$
