butane_opt
 OpenBabel08242015413D

 14 13  0  0  0  0  0  0  0  0999 V2000
   -3.9510    0.2525    0.0435 C   0  0  0  0  0  0  0  0  0  0  0  0
   -2.7107   -0.5978    0.0261 C   0  0  0  0  0  0  0  0  0  0  0  0
   -4.9066   -0.3508    0.0015 H   0  0  0  0  0  0  0  0  0  0  0  0
   -3.8978    0.8266   -0.8513 H   0  0  0  0  0  0  0  0  0  0  0  0
   -3.9553    0.9613    0.9209 H   0  0  0  0  0  0  0  0  0  0  0  0
   -1.4056    0.2027   -0.0186 C   0  0  0  0  0  0  0  0  0  0  0  0
   -2.7446   -1.3418   -0.8567 H   0  0  0  0  0  0  0  0  0  0  0  0
   -2.7111   -1.1925    0.8897 H   0  0  0  0  0  0  0  0  0  0  0  0
   -0.1484   -0.7100    0.0557 C   0  0  0  0  0  0  0  0  0  0  0  0
   -1.3765    0.8734    0.8220 H   0  0  0  0  0  0  0  0  0  0  0  0
   -1.3493    0.8506   -0.9341 H   0  0  0  0  0  0  0  0  0  0  0  0
   -0.1525   -1.3698    0.9843 H   0  0  0  0  0  0  0  0  0  0  0  0
    0.7566   -0.1234   -0.0015 H   0  0  0  0  0  0  0  0  0  0  0  0
   -0.0939   -1.3811   -0.8108 H   0  0  0  0  0  0  0  0  0  0  0  0
  1  5  1  0  0  0  0
  2  1  1  0  0  0  0
  2  8  1  0  0  0  0
  3  1  1  0  0  0  0
  4  1  1  0  0  0  0
  6  2  1  0  0  0  0
  6  9  1  0  0  0  0
  6 10  1  0  0  0  0
  7  2  1  0  0  0  0
  9 12  1  0  0  0  0
 11  6  1  0  0  0  0
 13  9  1  0  0  0  0
 14  9  1  0  0  0  0
M  END
$$$$
