butane_opt
 OpenBabel08242015413D

 14 13  0  0  0  0  0  0  0  0999 V2000
   -3.9546    0.2749    0.0359 C   0  0  0  0  0  0  0  0  0  0  0  0
   -2.6969   -0.6276    0.0202 C   0  0  0  0  0  0  0  0  0  0  0  0
   -4.8651   -0.3124    0.1018 H   0  0  0  0  0  0  0  0  0  0  0  0
   -4.0078    0.9020   -0.8555 H   0  0  0  0  0  0  0  0  0  0  0  0
   -3.8841    0.9285    0.9043 H   0  0  0  0  0  0  0  0  0  0  0  0
   -1.4057    0.1695   -0.0142 C   0  0  0  0  0  0  0  0  0  0  0  0
   -2.6871   -1.3219   -0.8613 H   0  0  0  0  0  0  0  0  0  0  0  0
   -2.6598   -1.2458    0.9131 H   0  0  0  0  0  0  0  0  0  0  0  0
   -0.1631   -0.6863    0.0564 C   0  0  0  0  0  0  0  0  0  0  0  0
   -1.3694    0.8379    0.8101 H   0  0  0  0  0  0  0  0  0  0  0  0
   -1.3745    0.8650   -0.9662 H   0  0  0  0  0  0  0  0  0  0  0  0
   -0.1810   -1.2268    0.9238 H   0  0  0  0  0  0  0  0  0  0  0  0
    0.7627   -0.0722    0.1397 H   0  0  0  0  0  0  0  0  0  0  0  0
   -0.1211   -1.3950   -0.8524 H   0  0  0  0  0  0  0  0  0  0  0  0
  1  3  1  0  0  0  0
  1  5  1  0  0  0  0
  2  1  1  0  0  0  0
  2  8  1  0  0  0  0
  4  1  1  0  0  0  0
  6  2  1  0  0  0  0
  6  9  1  0  0  0  0
  6 10  1  0  0  0  0
  7  2  1  0  0  0  0
  9 13  1  0  0  0  0
  9 12  1  0  0  0  0
 11  6  1  0  0  0  0
 14  9  1  0  0  0  0
M  END
$$$$
