14
butane_opt
C  -3.943236   0.275383  -0.021537
C  -2.705724  -0.634495   0.074297
H  -4.824862  -0.294151  -0.024512
H  -3.977944   0.884750  -0.906593
H  -4.040350   0.949715   0.844345
C  -1.401239   0.178890   0.049429
H  -2.719782  -1.293719  -0.767085
H  -2.709420  -1.243503   0.978573
C  -0.156078  -0.685726   0.000422
H  -1.319032   0.891954   0.938538
H  -1.413876   0.757383  -0.800879
H  -0.105244  -1.344397   0.907267
H   0.739187  -0.072291  -0.136794
H  -0.178235  -1.313270  -0.826343
