butane_opt
 OpenBabel08242015413D

 14 13  0  0  0  0  0  0  0  0999 V2000
   -3.9587    0.2581    0.0503 C   0  0  0  0  0  0  0  0  0  0  0  0
   -2.7037   -0.6075    0.0159 C   0  0  0  0  0  0  0  0  0  0  0  0
   -4.8713   -0.3565   -0.0200 H   0  0  0  0  0  0  0  0  0  0  0  0
   -3.9112    0.7647   -0.7864 H   0  0  0  0  0  0  0  0  0  0  0  0
   -3.9474    0.9857    0.9690 H   0  0  0  0  0  0  0  0  0  0  0  0
   -1.4096    0.2047   -0.0301 C   0  0  0  0  0  0  0  0  0  0  0  0
   -2.7621   -1.3260   -0.8574 H   0  0  0  0  0  0  0  0  0  0  0  0
   -2.7253   -1.2196    0.9075 H   0  0  0  0  0  0  0  0  0  0  0  0
   -0.1401   -0.7046    0.0603 C   0  0  0  0  0  0  0  0  0  0  0  0
   -1.3867    0.8098    0.7504 H   0  0  0  0  0  0  0  0  0  0  0  0
   -1.4119    0.8909   -0.9455 H   0  0  0  0  0  0  0  0  0  0  0  0
   -0.1747   -1.3116    0.9745 H   0  0  0  0  0  0  0  0  0  0  0  0
    0.7259   -0.1534    0.0808 H   0  0  0  0  0  0  0  0  0  0  0  0
   -0.0117   -1.3700   -0.7815 H   0  0  0  0  0  0  0  0  0  0  0  0
  1  5  1  0  0  0  0
  2  1  1  0  0  0  0
  2  8  1  0  0  0  0
  3  1  1  0  0  0  0
  4  1  1  0  0  0  0
  6  2  1  0  0  0  0
  6  9  1  0  0  0  0
  6 10  1  0  0  0  0
  7  2  1  0  0  0  0
  9 13  1  0  0  0  0
  9 12  1  0  0  0  0
 11  6  1  0  0  0  0
 14  9  1  0  0  0  0
M  END
$$$$
