14
butane_opt
C  -3.943214   0.258602  -0.009288
C  -2.710248  -0.599604   0.067929
H  -4.901239  -0.370999  -0.023815
H  -3.944878   0.881325  -0.933420
H  -4.001095   0.877117   0.827626
C  -1.407419   0.196793   0.054033
H  -2.714837  -1.327475  -0.830139
H  -2.787746  -1.216588   0.969834
C  -0.143663  -0.702077  -0.004308
H  -1.362615   0.889634   0.942554
H  -1.410882   0.808793  -0.810793
H  -0.042445  -1.397913   0.933191
H   0.742553  -0.156122  -0.134062
H  -0.138475  -1.305001  -0.799859
