14
butane_opt
C  -3.931973   0.260457  -0.020887
C  -2.687966  -0.617202   0.086844
H  -4.891517  -0.374785  -0.082939
H  -3.864629   0.849581  -0.899591
H  -3.998292   0.960452   0.870930
C  -1.418045   0.200709   0.038829
H  -2.700040  -1.250508  -0.723494
H  -2.745046  -1.269250   0.977734
C  -0.170766  -0.700278  -0.007317
H  -1.326961   0.906498   0.919431
H  -1.491343   0.773133  -0.806144
H  -0.069727  -1.325321   0.893855
H   0.714013  -0.108786  -0.017643
H  -0.145883  -1.361755  -0.851545
