butane_opt
 OpenBabel08242015413D

 14 13  0  0  0  0  0  0  0  0999 V2000
   -3.9518    0.2759    0.0511 C   0  0  0  0  0  0  0  0  0  0  0  0
   -2.7012   -0.6242    0.0218 C   0  0  0  0  0  0  0  0  0  0  0  0
   -4.8599   -0.3359    0.0523 H   0  0  0  0  0  0  0  0  0  0  0  0
   -3.9969    0.8785   -0.8624 H   0  0  0  0  0  0  0  0  0  0  0  0
   -4.0426    0.9961    0.9303 H   0  0  0  0  0  0  0  0  0  0  0  0
   -1.3890    0.1668   -0.0348 C   0  0  0  0  0  0  0  0  0  0  0  0
   -2.7861   -1.3482   -0.8741 H   0  0  0  0  0  0  0  0  0  0  0  0
   -2.6897   -1.2194    0.8866 H   0  0  0  0  0  0  0  0  0  0  0  0
   -0.1544   -0.6869    0.0637 C   0  0  0  0  0  0  0  0  0  0  0  0
   -1.4252    0.8341    0.8006 H   0  0  0  0  0  0  0  0  0  0  0  0
   -1.3503    0.8496   -0.9453 H   0  0  0  0  0  0  0  0  0  0  0  0
   -0.2094   -1.2564    0.9445 H   0  0  0  0  0  0  0  0  0  0  0  0
    0.7826   -0.0770    0.1057 H   0  0  0  0  0  0  0  0  0  0  0  0
   -0.0862   -1.3739   -0.8214 H   0  0  0  0  0  0  0  0  0  0  0  0
  1  3  1  0  0  0  0
  1  5  1  0  0  0  0
  2  1  1  0  0  0  0
  2  8  1  0  0  0  0
  4  1  1  0  0  0  0
  6  2  1  0  0  0  0
  6  9  1  0  0  0  0
  6 10  1  0  0  0  0
  7  2  1  0  0  0  0
  9 13  1  0  0  0  0
  9 12  1  0  0  0  0
 11  6  1  0  0  0  0
 14  9  1  0  0  0  0
M  END
$$$$
