14
butane_opt
C  -3.946982   0.275570   0.033414
C  -2.706337  -0.626516   0.026346
H  -4.834086  -0.306173   0.051230
H  -3.997812   0.889208  -0.864555
H  -3.962376   0.959704   0.931111
C  -1.395324   0.170550  -0.018711
H  -2.684561  -1.290496  -0.802885
H  -2.686523  -1.303644   0.958567
C  -0.165651  -0.681835   0.047482
H  -1.381139   0.835397   0.827443
H  -1.329391   0.834999  -0.919523
H  -0.196121  -1.217064   0.876647
H   0.719314  -0.118245   0.167952
H  -0.097572  -1.408874  -0.854661
