14
butane_opt
C  -3.937697   0.249390   0.026399
C  -2.703698  -0.595569   0.022100
H  -4.837563  -0.315746   0.007793
H  -3.945631   0.803947  -0.847271
H  -3.927404   0.944150   0.922581
C  -1.409290   0.192185   0.009515
H  -2.734664  -1.303459  -0.852163
H  -2.692371  -1.185919   0.888797
C  -0.161411  -0.704541   0.048934
H  -1.442615   0.861312   0.831495
H  -1.384906   0.837776  -0.889536
H  -0.034376  -1.415579   0.969908
H   0.756144  -0.120318  -0.103732
H  -0.232640  -1.272202  -0.756803
