butane_opt
 OpenBabel08242015413D

 14 13  0  0  0  0  0  0  0  0999 V2000
   -3.9508    0.2723    0.0046 C   0  0  0  0  0  0  0  0  0  0  0  0
   -2.7002   -0.6300    0.0640 C   0  0  0  0  0  0  0  0  0  0  0  0
   -4.8364   -0.2822    0.0261 H   0  0  0  0  0  0  0  0  0  0  0  0
   -3.9575    0.9321   -0.9089 H   0  0  0  0  0  0  0  0  0  0  0  0
   -4.0314    0.9060    0.8142 H   0  0  0  0  0  0  0  0  0  0  0  0
   -1.3882    0.1789    0.0263 C   0  0  0  0  0  0  0  0  0  0  0  0
   -2.7305   -1.3130   -0.7948 H   0  0  0  0  0  0  0  0  0  0  0  0
   -2.7130   -1.2733    0.9694 H   0  0  0  0  0  0  0  0  0  0  0  0
   -0.1617   -0.6880    0.0112 C   0  0  0  0  0  0  0  0  0  0  0  0
   -1.4089    0.8848    0.8658 H   0  0  0  0  0  0  0  0  0  0  0  0
   -1.3842    0.8318   -0.8797 H   0  0  0  0  0  0  0  0  0  0  0  0
   -0.1973   -1.2311    0.8913 H   0  0  0  0  0  0  0  0  0  0  0  0
    0.7673   -0.0767    0.0624 H   0  0  0  0  0  0  0  0  0  0  0  0
   -0.1246   -1.4493   -0.8965 H   0  0  0  0  0  0  0  0  0  0  0  0
  1  3  1  0  0  0  0
  1  2  1  0  0  0  0
  1  5  1  0  0  0  0
  2  8  1  0  0  0  0
  4  1  1  0  0  0  0
  6  2  1  0  0  0  0
  6 10  1  0  0  0  0
  7  2  1  0  0  0  0
  9  6  1  0  0  0  0
  9 13  1  0  0  0  0
  9 12  1  0  0  0  0
 11  6  1  0  0  0  0
 14  9  1  0  0  0  0
M  END
$$$$
