14
butane_opt
C  -3.939139   0.263380   0.031395
C  -2.696766  -0.621555   0.033894
H  -4.840447  -0.288781   0.032883
H  -3.948034   0.870667  -0.866102
H  -3.954939   0.980757   0.927014
C  -1.401911   0.176167  -0.025577
H  -2.746102  -1.252964  -0.795958
H  -2.606123  -1.258867   0.934610
C  -0.179917  -0.684683   0.044518
H  -1.387634   0.856844   0.847026
H  -1.364447   0.799665  -0.906971
H  -0.202583  -1.258523   0.932416
H   0.736888  -0.092757   0.166133
H  -0.100600  -1.430773  -0.849821
