butane_opt
 OpenBabel08242015413D

 14 13  0  0  0  0  0  0  0  0999 V2000
   -3.9438    0.2644    0.0426 C   0  0  0  0  0  0  0  0  0  0  0  0
   -2.6953   -0.6070    0.0210 C   0  0  0  0  0  0  0  0  0  0  0  0
   -4.8799   -0.3677   -0.1039 H   0  0  0  0  0  0  0  0  0  0  0  0
   -3.9089    0.7179   -0.7614 H   0  0  0  0  0  0  0  0  0  0  0  0
   -3.9743    1.0339    0.9999 H   0  0  0  0  0  0  0  0  0  0  0  0
   -1.4070    0.1862   -0.0251 C   0  0  0  0  0  0  0  0  0  0  0  0
   -2.7510   -1.2906   -0.8291 H   0  0  0  0  0  0  0  0  0  0  0  0
   -2.6908   -1.2449    0.9195 H   0  0  0  0  0  0  0  0  0  0  0  0
   -0.1567   -0.6985    0.0537 C   0  0  0  0  0  0  0  0  0  0  0  0
   -1.3727    0.8751    0.8242 H   0  0  0  0  0  0  0  0  0  0  0  0
   -1.4244    0.8687   -0.9582 H   0  0  0  0  0  0  0  0  0  0  0  0
   -0.2012   -1.3818    1.0131 H   0  0  0  0  0  0  0  0  0  0  0  0
    0.7331   -0.1372    0.0035 H   0  0  0  0  0  0  0  0  0  0  0  0
   -0.1130   -1.2960   -0.7555 H   0  0  0  0  0  0  0  0  0  0  0  0
  1  5  1  0  0  0  0
  2  1  1  0  0  0  0
  2  8  1  0  0  0  0
  3  1  1  0  0  0  0
  4  1  1  0  0  0  0
  6  2  1  0  0  0  0
  6  9  1  0  0  0  0
  6 10  1  0  0  0  0
  7  2  1  0  0  0  0
  9 12  1  0  0  0  0
 11  6  1  0  0  0  0
 13  9  1  0  0  0  0
 14  9  1  0  0  0  0
M  END
$$$$
