butane_opt
 OpenBabel08242015413D

 14 13  0  0  0  0  0  0  0  0999 V2000
   -3.9389    0.2533   -0.0053 C   0  0  0  0  0  0  0  0  0  0  0  0
   -2.7048   -0.5895    0.0463 C   0  0  0  0  0  0  0  0  0  0  0  0
   -4.8805   -0.3939    0.1651 H   0  0  0  0  0  0  0  0  0  0  0  0
   -3.9824    0.9693   -0.9811 H   0  0  0  0  0  0  0  0  0  0  0  0
   -3.8779    0.8081    0.8072 H   0  0  0  0  0  0  0  0  0  0  0  0
   -1.3990    0.1886    0.0457 C   0  0  0  0  0  0  0  0  0  0  0  0
   -2.6862   -1.2526   -0.8175 H   0  0  0  0  0  0  0  0  0  0  0  0
   -2.7558   -1.2524    0.9784 H   0  0  0  0  0  0  0  0  0  0  0  0
   -0.1593   -0.7059    0.0144 C   0  0  0  0  0  0  0  0  0  0  0  0
   -1.3635    0.8825    0.9152 H   0  0  0  0  0  0  0  0  0  0  0  0
   -1.4531    0.8423   -0.8499 H   0  0  0  0  0  0  0  0  0  0  0  0
   -0.1481   -1.2353    0.8706 H   0  0  0  0  0  0  0  0  0  0  0  0
    0.7117   -0.1567    0.0176 H   0  0  0  0  0  0  0  0  0  0  0  0
   -0.1485   -1.4502   -0.8932 H   0  0  0  0  0  0  0  0  0  0  0  0
  1  2  1  0  0  0  0
  1  3  1  0  0  0  0
  1  5  1  0  0  0  0
  2  8  1  0  0  0  0
  4  1  1  0  0  0  0
  6  2  1  0  0  0  0
  6 10  1  0  0  0  0
  7  2  1  0  0  0  0
  9 13  1  0  0  0  0
  9  6  1  0  0  0  0
  9 12  1  0  0  0  0
 11  6  1  0  0  0  0
 14  9  1  0  0  0  0
M  END
$$$$
