butane_opt
 OpenBabel08242015413D

 14 13  0  0  0  0  0  0  0  0999 V2000
   -3.9283    0.2507   -0.0175 C   0  0  0  0  0  0  0  0  0  0  0  0
   -2.7113   -0.6000    0.0791 C   0  0  0  0  0  0  0  0  0  0  0  0
   -4.8219   -0.3582   -0.0610 H   0  0  0  0  0  0  0  0  0  0  0  0
   -3.9064    0.8511   -0.9155 H   0  0  0  0  0  0  0  0  0  0  0  0
   -3.9799    0.9572    0.8682 H   0  0  0  0  0  0  0  0  0  0  0  0
   -1.4141    0.1933    0.0546 C   0  0  0  0  0  0  0  0  0  0  0  0
   -2.6984   -1.2555   -0.7750 H   0  0  0  0  0  0  0  0  0  0  0  0
   -2.7470   -1.2503    1.0000 H   0  0  0  0  0  0  0  0  0  0  0  0
   -0.1633   -0.7049   -0.0020 C   0  0  0  0  0  0  0  0  0  0  0  0
   -1.3664    0.8661    0.8809 H   0  0  0  0  0  0  0  0  0  0  0  0
   -1.4441    0.8671   -0.8849 H   0  0  0  0  0  0  0  0  0  0  0  0
   -0.0507   -1.3195    0.8646 H   0  0  0  0  0  0  0  0  0  0  0  0
    0.7541   -0.1056   -0.0167 H   0  0  0  0  0  0  0  0  0  0  0  0
   -0.1582   -1.3949   -0.8836 H   0  0  0  0  0  0  0  0  0  0  0  0
  1  2  1  0  0  0  0
  1  5  1  0  0  0  0
  2  8  1  0  0  0  0
  3  1  1  0  0  0  0
  4  1  1  0  0  0  0
  6  2  1  0  0  0  0
  6 10  1  0  0  0  0
  7  2  1  0  0  0  0
  9  6  1  0  0  0  0
  9 12  1  0  0  0  0
 11  6  1  0  0  0  0
 13  9  1  0  0  0  0
 14  9  1  0  0  0  0
M  END
$$$$
