butane_opt
 OpenBabel08242015413D

 14 13  0  0  0  0  0  0  0  0999 V2000
   -3.9359    0.2753   -0.0159 C   0  0  0  0  0  0  0  0  0  0  0  0
   -2.6941   -0.6194    0.0873 C   0  0  0  0  0  0  0  0  0  0  0  0
   -4.8583   -0.3148   -0.0475 H   0  0  0  0  0  0  0  0  0  0  0  0
   -3.9263    0.8374   -0.8657 H   0  0  0  0  0  0  0  0  0  0  0  0
   -4.0165    0.9365    0.8228 H   0  0  0  0  0  0  0  0  0  0  0  0
   -1.4057    0.1738    0.0251 C   0  0  0  0  0  0  0  0  0  0  0  0
   -2.6904   -1.2756   -0.7347 H   0  0  0  0  0  0  0  0  0  0  0  0
   -2.7205   -1.2645    0.9975 H   0  0  0  0  0  0  0  0  0  0  0  0
   -0.1764   -0.6854   -0.0032 C   0  0  0  0  0  0  0  0  0  0  0  0
   -1.3316    0.8717    0.9170 H   0  0  0  0  0  0  0  0  0  0  0  0
   -1.3834    0.7596   -0.8215 H   0  0  0  0  0  0  0  0  0  0  0  0
   -0.1494   -1.2662    0.8831 H   0  0  0  0  0  0  0  0  0  0  0  0
    0.7329   -0.0989    0.0526 H   0  0  0  0  0  0  0  0  0  0  0  0
   -0.1391   -1.3927   -0.8869 H   0  0  0  0  0  0  0  0  0  0  0  0
  1  2  1  0  0  0  0
  1  5  1  0  0  0  0
  2  8  1  0  0  0  0
  3  1  1  0  0  0  0
  4  1  1  0  0  0  0
  6  2  1  0  0  0  0
  6 10  1  0  0  0  0
  7  2  1  0  0  0  0
  9  6  1  0  0  0  0
  9 13  1  0  0  0  0
  9 12  1  0  0  0  0
 11  6  1  0  0  0  0
 14  9  1  0  0  0  0
M  END
$$$$
