14
butane_opt
C  -3.943588   0.277899   0.051283
C  -2.687286  -0.632665   0.004920
H  -4.826845  -0.285352   0.077509
H  -3.998145   0.926038  -0.864201
H  -3.936767   0.895004   0.873372
C  -1.411408   0.175964  -0.005919
H  -2.759310  -1.387443  -0.889377
H  -2.656771  -1.204766   0.837330
C  -0.167308  -0.680057   0.052689
H  -1.444338   0.809127   0.812187
H  -1.347278   0.794450  -0.910179
H  -0.167544  -1.339985   0.991003
H   0.772553  -0.067131  -0.000580
H  -0.157286  -1.286341  -0.728511
