14
butane_opt
C  -3.928455   0.252981  -0.012030
C  -2.705488  -0.610678   0.077165
H  -4.845213  -0.323820   0.054745
H  -3.978974   0.938717  -0.941157
H  -3.996653   0.900445   0.831672
C  -1.409940   0.193267   0.020328
H  -2.679327  -1.254041  -0.721143
H  -2.762584  -1.277165   1.027499
C  -0.159904  -0.703205   0.005098
H  -1.360667   0.931508   0.909455
H  -1.418090   0.793556  -0.833755
H  -0.206514  -1.173621   0.827288
H   0.749116  -0.119447   0.117806
H  -0.067682  -1.486767  -0.939664
