14
butane_opt
C  -3.963083   0.268729   0.044691
C  -2.700478  -0.629722   0.017262
H  -4.828182  -0.277265   0.001565
H  -3.992727   0.810181  -0.802580
H  -3.961275   1.030971   0.963787
C  -1.400185   0.176476  -0.027307
H  -2.694814  -1.293914  -0.818247
H  -2.679489  -1.268771   0.913192
C  -0.155958  -0.682134   0.055817
H  -1.391787   0.822431   0.817967
H  -1.329288   0.850197  -0.981187
H  -0.165859  -1.301556   0.943947
H   0.720927  -0.089414   0.127005
H  -0.073626  -1.353423  -0.801564
