butane_opt
 OpenBabel08242015413D

 14 13  0  0  0  0  0  0  0  0999 V2000
   -3.9383    0.2652    0.0219 C   0  0  0  0  0  0  0  0  0  0  0  0
   -2.7046   -0.6022    0.0459 C   0  0  0  0  0  0  0  0  0  0  0  0
   -4.8664   -0.3753   -0.1229 H   0  0  0  0  0  0  0  0  0  0  0  0
   -3.9017    0.7532   -0.7943 H   0  0  0  0  0  0  0  0  0  0  0  0
   -4.0011    1.0136    0.9425 H   0  0  0  0  0  0  0  0  0  0  0  0
   -1.4008    0.1910    0.0036 C   0  0  0  0  0  0  0  0  0  0  0  0
   -2.7053   -1.2780   -0.8127 H   0  0  0  0  0  0  0  0  0  0  0  0
   -2.6624   -1.2653    0.9390 H   0  0  0  0  0  0  0  0  0  0  0  0
   -0.1678   -0.7035    0.0365 C   0  0  0  0  0  0  0  0  0  0  0  0
   -1.4036    0.7781    0.8107 H   0  0  0  0  0  0  0  0  0  0  0  0
   -1.3791    0.8549   -0.9240 H   0  0  0  0  0  0  0  0  0  0  0  0
   -0.1320   -1.3092    0.9225 H   0  0  0  0  0  0  0  0  0  0  0  0
    0.7476   -0.0924   -0.0146 H   0  0  0  0  0  0  0  0  0  0  0  0
   -0.1744   -1.3578   -0.7943 H   0  0  0  0  0  0  0  0  0  0  0  0
  1  2  1  0  0  0  0
  1  5  1  0  0  0  0
  2  8  1  0  0  0  0
  3  1  1  0  0  0  0
  4  1  1  0  0  0  0
  6  9  1  0  0  0  0
  6  2  1  0  0  0  0
  6 10  1  0  0  0  0
  7  2  1  0  0  0  0
  9 12  1  0  0  0  0
 11  6  1  0  0  0  0
 13  9  1  0  0  0  0
 14  9  1  0  0  0  0
M  END
$$$$
