butane_opt
 OpenBabel08242015413D

 14 13  0  0  0  0  0  0  0  0999 V2000
   -3.9312    0.2516    0.0153 C   0  0  0  0  0  0  0  0  0  0  0  0
   -2.7058   -0.6035    0.0304 C   0  0  0  0  0  0  0  0  0  0  0  0
   -4.8332   -0.3433    0.1169 H   0  0  0  0  0  0  0  0  0  0  0  0
   -3.9732    0.9119   -0.9025 H   0  0  0  0  0  0  0  0  0  0  0  0
   -3.9209    0.8703    0.8344 H   0  0  0  0  0  0  0  0  0  0  0  0
   -1.4165    0.1987    0.0164 C   0  0  0  0  0  0  0  0  0  0  0  0
   -2.7402   -1.2546   -0.7921 H   0  0  0  0  0  0  0  0  0  0  0  0
   -2.7473   -1.2904    0.9569 H   0  0  0  0  0  0  0  0  0  0  0  0
   -0.1566   -0.7015    0.0270 C   0  0  0  0  0  0  0  0  0  0  0  0
   -1.4677    0.9203    0.8950 H   0  0  0  0  0  0  0  0  0  0  0  0
   -1.3920    0.8230   -0.8528 H   0  0  0  0  0  0  0  0  0  0  0  0
   -0.0851   -1.3310    0.9151 H   0  0  0  0  0  0  0  0  0  0  0  0
    0.7448   -0.1001    0.0614 H   0  0  0  0  0  0  0  0  0  0  0  0
   -0.0954   -1.4200   -0.8706 H   0  0  0  0  0  0  0  0  0  0  0  0
  1  2  1  0  0  0  0
  1  3  1  0  0  0  0
  1  5  1  0  0  0  0
  2  8  1  0  0  0  0
  4  1  1  0  0  0  0
  6  9  1  0  0  0  0
  6  2  1  0  0  0  0
  6 10  1  0  0  0  0
  7  2  1  0  0  0  0
  9 13  1  0  0  0  0
  9 12  1  0  0  0  0
 11  6  1  0  0  0  0
 14  9  1  0  0  0  0
M  END
$$$$
