14
butane_opt
C  -3.931438   0.252760  -0.000044
C  -2.705195  -0.603335   0.063011
H  -4.860437  -0.359945  -0.088254
H  -3.880795   0.774209  -0.850048
H  -4.013044   1.011443   0.913970
C  -1.415418   0.195088   0.029887
H  -2.668698  -1.257728  -0.778798
H  -2.734321  -1.262704   0.979057
C  -0.167239  -0.699036   0.016836
H  -1.351505   0.860236   0.843801
H  -1.453749   0.876353  -0.904279
H  -0.062048  -1.351183   0.914975
H   0.755562  -0.124080  -0.028420
H  -0.123296  -1.390152  -0.858529
