14
butane_opt
C  -3.953192   0.256087  -0.016454
C  -2.694335  -0.605902   0.083317
H  -4.856229  -0.354066  -0.067545
H  -3.883088   0.833258  -0.899016
H  -4.043555   0.901424   0.844939
C  -1.407498   0.201585   0.033911
H  -2.716280  -1.242666  -0.766819
H  -2.755892  -1.282810   1.026366
C  -0.158272  -0.701910  -0.001713
H  -1.350903   0.958020   0.946125
H  -1.423156   0.773180  -0.811356
H  -0.032937  -1.331987   0.902166
H   0.739844  -0.140782  -0.031962
H  -0.141023  -1.388588  -0.888064
