butane_opt
 OpenBabel08242015413D

 14 13  0  0  0  0  0  0  0  0999 V2000
   -3.9575    0.2630   -0.0030 C   0  0  0  0  0  0  0  0  0  0  0  0
   -2.6980   -0.6170    0.0516 C   0  0  0  0  0  0  0  0  0  0  0  0
   -4.8704   -0.3045    0.1418 H   0  0  0  0  0  0  0  0  0  0  0  0
   -4.0294    1.0184   -0.9813 H   0  0  0  0  0  0  0  0  0  0  0  0
   -3.9634    0.8443    0.7796 H   0  0  0  0  0  0  0  0  0  0  0  0
   -1.3978    0.1809    0.0425 C   0  0  0  0  0  0  0  0  0  0  0  0
   -2.7049   -1.2431   -0.7595 H   0  0  0  0  0  0  0  0  0  0  0  0
   -2.7527   -1.2928    0.9484 H   0  0  0  0  0  0  0  0  0  0  0  0
   -0.1561   -0.6960    0.0097 C   0  0  0  0  0  0  0  0  0  0  0  0
   -1.3871    0.8924    0.9239 H   0  0  0  0  0  0  0  0  0  0  0  0
   -1.3414    0.7620   -0.8199 H   0  0  0  0  0  0  0  0  0  0  0  0
   -0.1288   -1.2232    0.8252 H   0  0  0  0  0  0  0  0  0  0  0  0
    0.7781   -0.0655    0.0276 H   0  0  0  0  0  0  0  0  0  0  0  0
   -0.1128   -1.4222   -0.8800 H   0  0  0  0  0  0  0  0  0  0  0  0
  1  2  1  0  0  0  0
  1  3  1  0  0  0  0
  1  5  1  0  0  0  0
  2  8  1  0  0  0  0
  4  1  1  0  0  0  0
  6  2  1  0  0  0  0
  6 10  1  0  0  0  0
  7  2  1  0  0  0  0
  9 13  1  0  0  0  0
  9  6  1  0  0  0  0
  9 12  1  0  0  0  0
 11  6  1  0  0  0  0
 14  9  1  0  0  0  0
M  END
$$$$
