14
butane_opt
C  -3.942903   0.277947  -0.008508
C  -2.696756  -0.618629   0.057676
H  -4.844244  -0.315548   0.192054
H  -4.002589   1.016098  -1.019078
H  -3.925251   0.780645   0.754073
C  -1.402296   0.166874   0.041493
H  -2.760492  -1.277640  -0.796559
H  -2.710561  -1.264107   0.941408
C  -0.158934  -0.684391   0.008206
H  -1.369194   0.911712   0.928042
H  -1.399994   0.707824  -0.770789
H  -0.181536  -1.227524   0.866840
H   0.749750  -0.091584   0.022233
H  -0.171586  -1.404959  -0.889989
