14
butane_opt
C  -3.950743   0.266162   0.038011
C  -2.708258  -0.624322  -0.007128
H  -4.805776  -0.296142   0.150258
H  -4.085849   0.898559  -0.849124
H  -3.916539   0.932294   0.881107
C  -1.402019   0.178412   0.003898
H  -2.727257  -1.298638  -0.850540
H  -2.679941  -1.226794   0.877452
C  -0.145055  -0.687271   0.050878
H  -1.406671   0.847112   0.857815
H  -1.370475   0.815054  -0.912478
H  -0.118155  -1.361727   1.014901
H   0.738592  -0.104401   0.004053
H  -0.179360  -1.269407  -0.753948
