14
butane_opt
C  -3.951774   0.269071   0.042515
C  -2.700052  -0.622714  -0.002467
H  -4.878017  -0.340734   0.188087
H  -4.053791   0.941524  -0.880237
H  -3.942770   0.910362   0.885874
C  -1.396295   0.182110  -0.010265
H  -2.767683  -1.350558  -0.873560
H  -2.648345  -1.206888   0.829799
C  -0.159433  -0.685125   0.065959
H  -1.396398   0.848304   0.845299
H  -1.359852   0.807368  -0.896873
H  -0.114103  -1.358661   0.958270
H   0.736518  -0.118379  -0.007609
H  -0.108418  -1.317352  -0.759308
