butane_opt
 OpenBabel08242015413D

 14 13  0  0  0  0  0  0  0  0999 V2000
   -3.9444    0.2524    0.0480 C   0  0  0  0  0  0  0  0  0  0  0  0
   -2.7119   -0.6058   -0.0050 C   0  0  0  0  0  0  0  0  0  0  0  0
   -4.8679   -0.3276    0.1941 H   0  0  0  0  0  0  0  0  0  0  0  0
   -4.0365    0.9390   -0.8782 H   0  0  0  0  0  0  0  0  0  0  0  0
   -3.9215    0.8891    0.8830 H   0  0  0  0  0  0  0  0  0  0  0  0
   -1.4006    0.2017   -0.0202 C   0  0  0  0  0  0  0  0  0  0  0  0
   -2.7433   -1.3424   -0.8963 H   0  0  0  0  0  0  0  0  0  0  0  0
   -2.6967   -1.2328    0.8837 H   0  0  0  0  0  0  0  0  0  0  0  0
   -0.1512   -0.7003    0.0628 C   0  0  0  0  0  0  0  0  0  0  0  0
   -1.3944    0.9090    0.8466 H   0  0  0  0  0  0  0  0  0  0  0  0
   -1.3342    0.7874   -0.8903 H   0  0  0  0  0  0  0  0  0  0  0  0
   -0.1262   -1.3556    1.0140 H   0  0  0  0  0  0  0  0  0  0  0  0
    0.7132   -0.1659    0.0363 H   0  0  0  0  0  0  0  0  0  0  0  0
   -0.1063   -1.3519   -0.7798 H   0  0  0  0  0  0  0  0  0  0  0  0
  1  3  1  0  0  0  0
  1  5  1  0  0  0  0
  2  1  1  0  0  0  0
  2  8  1  0  0  0  0
  4  1  1  0  0  0  0
  6  2  1  0  0  0  0
  6  9  1  0  0  0  0
  6 10  1  0  0  0  0
  7  2  1  0  0  0  0
  9 12  1  0  0  0  0
 11  6  1  0  0  0  0
 13  9  1  0  0  0  0
 14  9  1  0  0  0  0
M  END
$$$$
