14
butane_opt
C  -3.945040   0.272329   0.020859
C  -2.698859  -0.621612   0.042653
H  -4.827332  -0.303883   0.040621
H  -4.021305   0.892476  -0.852652
H  -3.938081   0.940450   0.879465
C  -1.399598   0.175342  -0.004540
H  -2.725223  -1.280149  -0.836344
H  -2.687082  -1.288301   0.961343
C  -0.159449  -0.694832   0.032530
H  -1.362306   0.854817   0.846650
H  -1.384433   0.811531  -0.900207
H  -0.278369  -1.238574   0.895733
H   0.769085  -0.051774   0.150160
H  -0.127326  -1.385450  -0.850694
