butane_opt
 OpenBabel08242015413D

 14 13  0  0  0  0  0  0  0  0999 V2000
   -3.9339    0.2546    0.0123 C   0  0  0  0  0  0  0  0  0  0  0  0
   -2.6962   -0.5905    0.0487 C   0  0  0  0  0  0  0  0  0  0  0  0
   -4.8869   -0.3925    0.0328 H   0  0  0  0  0  0  0  0  0  0  0  0
   -3.9280    0.8268   -0.8493 H   0  0  0  0  0  0  0  0  0  0  0  0
   -3.9616    0.9299    0.8654 H   0  0  0  0  0  0  0  0  0  0  0  0
   -1.4042    0.1929    0.0056 C   0  0  0  0  0  0  0  0  0  0  0  0
   -2.7074   -1.2596   -0.7843 H   0  0  0  0  0  0  0  0  0  0  0  0
   -2.7329   -1.2522    0.9581 H   0  0  0  0  0  0  0  0  0  0  0  0
   -0.1658   -0.7052    0.0296 C   0  0  0  0  0  0  0  0  0  0  0  0
   -1.3737    0.8069    0.8285 H   0  0  0  0  0  0  0  0  0  0  0  0
   -1.4456    0.8557   -0.8780 H   0  0  0  0  0  0  0  0  0  0  0  0
   -0.1650   -1.2421    0.8835 H   0  0  0  0  0  0  0  0  0  0  0  0
    0.7014   -0.1316    0.1078 H   0  0  0  0  0  0  0  0  0  0  0  0
   -0.1101   -1.4477   -0.8780 H   0  0  0  0  0  0  0  0  0  0  0  0
  1  3  1  0  0  0  0
  1  2  1  0  0  0  0
  1  5  1  0  0  0  0
  2  8  1  0  0  0  0
  4  1  1  0  0  0  0
  6  9  1  0  0  0  0
  6  2  1  0  0  0  0
  6 10  1  0  0  0  0
  7  2  1  0  0  0  0
  9 13  1  0  0  0  0
  9 12  1  0  0  0  0
 11  6  1  0  0  0  0
 14  9  1  0  0  0  0
M  END
$$$$
