butane_opt
 OpenBabel08242015413D

 14 13  0  0  0  0  0  0  0  0999 V2000
   -3.9500    0.2518    0.0455 C   0  0  0  0  0  0  0  0  0  0  0  0
   -2.7074   -0.6155    0.0181 C   0  0  0  0  0  0  0  0  0  0  0  0
   -4.8601   -0.3326   -0.0200 H   0  0  0  0  0  0  0  0  0  0  0  0
   -3.9344    0.8253   -0.8255 H   0  0  0  0  0  0  0  0  0  0  0  0
   -4.0047    0.9595    0.9307 H   0  0  0  0  0  0  0  0  0  0  0  0
   -1.4018    0.2081   -0.0131 C   0  0  0  0  0  0  0  0  0  0  0  0
   -2.7759   -1.2908   -0.8486 H   0  0  0  0  0  0  0  0  0  0  0  0
   -2.6951   -1.1891    0.8744 H   0  0  0  0  0  0  0  0  0  0  0  0
   -0.1466   -0.7091    0.0569 C   0  0  0  0  0  0  0  0  0  0  0  0
   -1.4060    0.8681    0.7924 H   0  0  0  0  0  0  0  0  0  0  0  0
   -1.4275    0.8910   -0.9473 H   0  0  0  0  0  0  0  0  0  0  0  0
   -0.0866   -1.3533    0.9592 H   0  0  0  0  0  0  0  0  0  0  0  0
    0.7648   -0.1416    0.0306 H   0  0  0  0  0  0  0  0  0  0  0  0
   -0.1221   -1.3397   -0.7817 H   0  0  0  0  0  0  0  0  0  0  0  0
  1  5  1  0  0  0  0
  2  1  1  0  0  0  0
  2  8  1  0  0  0  0
  3  1  1  0  0  0  0
  4  1  1  0  0  0  0
  6  2  1  0  0  0  0
  6  9  1  0  0  0  0
  6 10  1  0  0  0  0
  7  2  1  0  0  0  0
  9 12  1  0  0  0  0
 11  6  1  0  0  0  0
 13  9  1  0  0  0  0
 14  9  1  0  0  0  0
M  END
$$$$
