14
butane_opt
C  -3.947137   0.280996   0.021359
C  -2.692936  -0.635336   0.021066
H  -4.822130  -0.294691   0.066428
H  -3.954143   0.883959  -0.886955
H  -3.968407   0.948373   0.889161
C  -1.401908   0.168195   0.024609
H  -2.717080  -1.345577  -0.845230
H  -2.700026  -1.235987   0.887381
C  -0.171756  -0.680793   0.035048
H  -1.393950   0.861405   0.883495
H  -1.334604   0.845804  -0.880442
H  -0.091827  -1.379038   0.979342
H   0.743187  -0.074888  -0.119382
H  -0.229571  -1.267701  -0.750878
