butane_opt
 OpenBabel08242015413D

 14 13  0  0  0  0  0  0  0  0999 V2000
   -3.9305    0.2774    0.0110 C   0  0  0  0  0  0  0  0  0  0  0  0
   -2.6860   -0.6354    0.0446 C   0  0  0  0  0  0  0  0  0  0  0  0
   -4.8515   -0.3078   -0.0096 H   0  0  0  0  0  0  0  0  0  0  0  0
   -3.9786    0.9370   -0.9174 H   0  0  0  0  0  0  0  0  0  0  0  0
   -3.9973    0.9436    0.8256 H   0  0  0  0  0  0  0  0  0  0  0  0
   -1.4121    0.1756    0.0420 C   0  0  0  0  0  0  0  0  0  0  0  0
   -2.7211   -1.3645   -0.8475 H   0  0  0  0  0  0  0  0  0  0  0  0
   -2.7106   -1.2531    0.9471 H   0  0  0  0  0  0  0  0  0  0  0  0
   -0.1721   -0.6804    0.0160 C   0  0  0  0  0  0  0  0  0  0  0  0
   -1.4105    0.8547    0.8940 H   0  0  0  0  0  0  0  0  0  0  0  0
   -1.3759    0.7866   -0.8514 H   0  0  0  0  0  0  0  0  0  0  0  0
   -0.1046   -1.3755    0.9685 H   0  0  0  0  0  0  0  0  0  0  0  0
    0.7731   -0.0603   -0.1147 H   0  0  0  0  0  0  0  0  0  0  0  0
   -0.2434   -1.2708   -0.8190 H   0  0  0  0  0  0  0  0  0  0  0  0
  1  2  1  0  0  0  0
  1  5  1  0  0  0  0
  2  8  1  0  0  0  0
  3  1  1  0  0  0  0
  4  1  1  0  0  0  0
  6  2  1  0  0  0  0
  6 10  1  0  0  0  0
  7  2  1  0  0  0  0
  9  6  1  0  0  0  0
  9 12  1  0  0  0  0
 11  6  1  0  0  0  0
 13  9  1  0  0  0  0
 14  9  1  0  0  0  0
M  END
$$$$
