butane_opt
 OpenBabel08242015413D

 14 13  0  0  0  0  0  0  0  0999 V2000
   -3.9383    0.2780    0.0011 C   0  0  0  0  0  0  0  0  0  0  0  0
   -2.6913   -0.6352    0.0478 C   0  0  0  0  0  0  0  0  0  0  0  0
   -4.8291   -0.2674    0.0667 H   0  0  0  0  0  0  0  0  0  0  0  0
   -4.0216    0.9618   -0.9472 H   0  0  0  0  0  0  0  0  0  0  0  0
   -3.9805    0.8266    0.7838 H   0  0  0  0  0  0  0  0  0  0  0  0
   -1.4015    0.1823    0.0401 C   0  0  0  0  0  0  0  0  0  0  0  0
   -2.7321   -1.2733   -0.7941 H   0  0  0  0  0  0  0  0  0  0  0  0
   -2.6741   -1.2806    0.9631 H   0  0  0  0  0  0  0  0  0  0  0  0
   -0.1744   -0.6894    0.0118 C   0  0  0  0  0  0  0  0  0  0  0  0
   -1.3596    0.8826    0.9316 H   0  0  0  0  0  0  0  0  0  0  0  0
   -1.3713    0.7490   -0.7938 H   0  0  0  0  0  0  0  0  0  0  0  0
   -0.1587   -1.2890    0.8828 H   0  0  0  0  0  0  0  0  0  0  0  0
    0.7698   -0.0617   -0.0255 H   0  0  0  0  0  0  0  0  0  0  0  0
   -0.2002   -1.3416   -0.8568 H   0  0  0  0  0  0  0  0  0  0  0  0
  1  2  1  0  0  0  0
  1  3  1  0  0  0  0
  1  5  1  0  0  0  0
  2  8  1  0  0  0  0
  4  1  1  0  0  0  0
  6  2  1  0  0  0  0
  6 10  1  0  0  0  0
  7  2  1  0  0  0  0
  9  6  1  0  0  0  0
  9 12  1  0  0  0  0
 11  6  1  0  0  0  0
 13  9  1  0  0  0  0
 14  9  1  0  0  0  0
M  END
$$$$
