14
butane_opt
C  -3.931298   0.258937   0.003809
C  -2.690893  -0.608284   0.061712
H  -4.876640  -0.388387  -0.084082
H  -3.896784   0.782160  -0.861642
H  -3.994759   0.976388   0.880589
C  -1.411583   0.202601   0.020311
H  -2.686270  -1.235707  -0.735478
H  -2.764294  -1.272339   0.980300
C  -0.171687  -0.707692   0.015734
H  -1.391884   0.899212   0.875692
H  -1.414576   0.813200  -0.850063
H  -0.122824  -1.295051   0.903292
H   0.721057  -0.152325  -0.039781
H  -0.122068  -1.355841  -0.843367
