butane_opt
 OpenBabel08242015413D

 14 13  0  0  0  0  0  0  0  0999 V2000
   -3.9359    0.2595    0.0329 C   0  0  0  0  0  0  0  0  0  0  0  0
   -2.6957   -0.6035    0.0409 C   0  0  0  0  0  0  0  0  0  0  0  0
   -4.8732   -0.3596   -0.0650 H   0  0  0  0  0  0  0  0  0  0  0  0
   -3.9340    0.7239   -0.7702 H   0  0  0  0  0  0  0  0  0  0  0  0
   -3.9914    1.0268    0.9549 H   0  0  0  0  0  0  0  0  0  0  0  0
   -1.4127    0.1917   -0.0218 C   0  0  0  0  0  0  0  0  0  0  0  0
   -2.7542   -1.3414   -0.8710 H   0  0  0  0  0  0  0  0  0  0  0  0
   -2.7280   -1.1878    0.9364 H   0  0  0  0  0  0  0  0  0  0  0  0
   -0.1546   -0.7073    0.0483 C   0  0  0  0  0  0  0  0  0  0  0  0
   -1.4292    0.8440    0.7989 H   0  0  0  0  0  0  0  0  0  0  0  0
   -1.4056    0.8784   -0.9569 H   0  0  0  0  0  0  0  0  0  0  0  0
   -0.1973   -1.3234    0.9926 H   0  0  0  0  0  0  0  0  0  0  0  0
    0.7680   -0.0914    0.0092 H   0  0  0  0  0  0  0  0  0  0  0  0
   -0.0850   -1.3373   -0.7827 H   0  0  0  0  0  0  0  0  0  0  0  0
  1  2  1  0  0  0  0
  1  5  1  0  0  0  0
  2  8  1  0  0  0  0
  3  1  1  0  0  0  0
  4  1  1  0  0  0  0
  6  2  1  0  0  0  0
  6  9  1  0  0  0  0
  6 10  1  0  0  0  0
  7  2  1  0  0  0  0
  9 12  1  0  0  0  0
 11  6  1  0  0  0  0
 13  9  1  0  0  0  0
 14  9  1  0  0  0  0
M  END
$$$$
