14
butane_opt
C  -3.931464   0.253573  -0.000555
C  -2.699938  -0.596272   0.050776
H  -4.878590  -0.357082   0.137112
H  -3.965240   1.007058  -1.002051
H  -3.884582   0.774692   0.737374
C  -1.420061   0.192604   0.046560
H  -2.721342  -1.252999  -0.786857
H  -2.696858  -1.252815   0.981226
C  -0.168082  -0.703373   0.006411
H  -1.381326   0.870506   0.912849
H  -1.386710   0.757493  -0.815167
H  -0.088835  -1.217876   0.843253
H   0.740945  -0.130182   0.064672
H  -0.124990  -1.428074  -0.898071
