butane_opt
 OpenBabel08242015413D

 14 13  0  0  0  0  0  0  0  0999 V2000
   -3.9450    0.2609    0.0465 C   0  0  0  0  0  0  0  0  0  0  0  0
   -2.7066   -0.6118   -0.0054 C   0  0  0  0  0  0  0  0  0  0  0  0
   -4.8430   -0.3354    0.1904 H   0  0  0  0  0  0  0  0  0  0  0  0
   -4.0322    0.8517   -0.8546 H   0  0  0  0  0  0  0  0  0  0  0  0
   -3.9015    0.8946    0.8919 H   0  0  0  0  0  0  0  0  0  0  0  0
   -1.3990    0.2067   -0.0220 C   0  0  0  0  0  0  0  0  0  0  0  0
   -2.8155   -1.3155   -0.9010 H   0  0  0  0  0  0  0  0  0  0  0  0
   -2.7142   -1.2111    0.8707 H   0  0  0  0  0  0  0  0  0  0  0  0
   -0.1550   -0.7099    0.0631 C   0  0  0  0  0  0  0  0  0  0  0  0
   -1.3961    0.8991    0.8570 H   0  0  0  0  0  0  0  0  0  0  0  0
   -1.4024    0.8271   -0.8941 H   0  0  0  0  0  0  0  0  0  0  0  0
   -0.1488   -1.3966    0.9999 H   0  0  0  0  0  0  0  0  0  0  0  0
    0.7606   -0.1006    0.0407 H   0  0  0  0  0  0  0  0  0  0  0  0
   -0.0648   -1.3297   -0.7393 H   0  0  0  0  0  0  0  0  0  0  0  0
  1  3  1  0  0  0  0
  1  5  1  0  0  0  0
  2  1  1  0  0  0  0
  2  8  1  0  0  0  0
  4  1  1  0  0  0  0
  6  2  1  0  0  0  0
  6  9  1  0  0  0  0
  6 10  1  0  0  0  0
  7  2  1  0  0  0  0
  9 12  1  0  0  0  0
 11  6  1  0  0  0  0
 13  9  1  0  0  0  0
 14  9  1  0  0  0  0
M  END
$$$$
