butane_opt
 OpenBabel08242015413D

 14 13  0  0  0  0  0  0  0  0999 V2000
   -3.9298    0.2500   -0.0135 C   0  0  0  0  0  0  0  0  0  0  0  0
   -2.7053   -0.6042    0.0624 C   0  0  0  0  0  0  0  0  0  0  0  0
   -4.8258   -0.3163    0.1707 H   0  0  0  0  0  0  0  0  0  0  0  0
   -4.0015    0.9840   -0.9880 H   0  0  0  0  0  0  0  0  0  0  0  0
   -3.8925    0.8163    0.8005 H   0  0  0  0  0  0  0  0  0  0  0  0
   -1.4077    0.1950    0.0350 C   0  0  0  0  0  0  0  0  0  0  0  0
   -2.7109   -1.2475   -0.7802 H   0  0  0  0  0  0  0  0  0  0  0  0
   -2.7002   -1.2614    0.9592 H   0  0  0  0  0  0  0  0  0  0  0  0
   -0.1656   -0.7071    0.0055 C   0  0  0  0  0  0  0  0  0  0  0  0
   -1.3606    0.9416    0.9265 H   0  0  0  0  0  0  0  0  0  0  0  0
   -1.4517    0.7724   -0.7971 H   0  0  0  0  0  0  0  0  0  0  0  0
   -0.1592   -1.2355    0.8484 H   0  0  0  0  0  0  0  0  0  0  0  0
    0.7203   -0.1195    0.0992 H   0  0  0  0  0  0  0  0  0  0  0  0
   -0.1316   -1.4143   -0.8868 H   0  0  0  0  0  0  0  0  0  0  0  0
  1  2  1  0  0  0  0
  1  3  1  0  0  0  0
  1  5  1  0  0  0  0
  2  8  1  0  0  0  0
  4  1  1  0  0  0  0
  6  2  1  0  0  0  0
  6 10  1  0  0  0  0
  7  2  1  0  0  0  0
  9  6  1  0  0  0  0
  9 13  1  0  0  0  0
  9 12  1  0  0  0  0
 11  6  1  0  0  0  0
 14  9  1  0  0  0  0
M  END
$$$$
