14
butane_opt
C  -3.937176   0.253025  -0.004011
C  -2.696563  -0.602612   0.062524
H  -4.857535  -0.340143   0.099674
H  -3.909655   0.922488  -0.932035
H  -3.961417   0.829887   0.821882
C  -1.416514   0.194313   0.026542
H  -2.682783  -1.216726  -0.769545
H  -2.753490  -1.263556   0.992009
C  -0.162639  -0.694945   0.005684
H  -1.391069   0.894857   0.894506
H  -1.426609   0.773335  -0.827152
H  -0.157130  -1.253409   0.864433
H   0.739607  -0.140496   0.118018
H  -0.069577  -1.479649  -0.921034
