14
butane_opt
C  -3.948999   0.275966   0.024631
C  -2.705674  -0.637208   0.014346
H  -4.809185  -0.289971   0.171867
H  -4.031388   0.929127  -0.891545
H  -3.907253   0.931742   0.879164
C  -1.400344   0.183174   0.001223
H  -2.744608  -1.283787  -0.831448
H  -2.687463  -1.276652   0.892494
C  -0.157050  -0.689803   0.049601
H  -1.370366   0.862061   0.864908
H  -1.360653   0.783004  -0.882889
H  -0.165050  -1.261465   0.919708
H   0.751794  -0.101886   0.028190
H  -0.158819  -1.338321  -0.791182
