14
butane_opt
C  -3.963823   0.270634   0.053911
C  -2.691252  -0.623751   0.001455
H  -4.877560  -0.309154   0.096318
H  -4.055079   0.934594  -0.875327
H  -3.960665   0.905683   0.902571
C  -1.395668   0.170460  -0.024521
H  -2.722916  -1.307694  -0.876342
H  -2.655208  -1.211274   0.872962
C  -0.153750  -0.682398   0.059113
H  -1.373565   0.851420   0.844088
H  -1.342081   0.772491  -0.899669
H  -0.198151  -1.309998   0.967332
H   0.751967  -0.103743   0.068891
H  -0.127333  -1.313100  -0.744779
