14
butane_opt
C  -3.946558   0.269030  -0.012733
C  -2.689752  -0.621545   0.067562
H  -4.836320  -0.308679  -0.023763
H  -3.887403   0.943687  -0.942577
H  -4.012106   0.872586   0.807062
C  -1.406206   0.174131   0.061013
H  -2.687105  -1.318315  -0.794494
H  -2.677515  -1.234110   0.951341
C  -0.169449  -0.689656   0.002234
H  -1.344998   0.908987   0.963064
H  -1.452220   0.788517  -0.846379
H  -0.100013  -1.322112   0.917597
H   0.774240  -0.076682  -0.171148
H  -0.261859  -1.301732  -0.841925
