14
butane_opt
C  -3.927223   0.257588   0.038039
C  -2.695089  -0.611286   0.015915
H  -4.874102  -0.349180   0.013467
H  -3.930086   0.838602  -0.849189
H  -3.957202   0.946426   0.896158
C  -1.406466   0.200349   0.005106
H  -2.749274  -1.316250  -0.885672
H  -2.717020  -1.176313   0.872983
C  -0.172746  -0.707633   0.043291
H  -1.370381   0.854978   0.857253
H  -1.426178   0.849033  -0.885205
H  -0.106587  -1.421101   1.006347
H   0.717546  -0.145293  -0.068744
H  -0.181050  -1.228622  -0.724813
