14
butane_opt
C  -3.952188   0.251695   0.022215
C  -2.707538  -0.617046   0.043028
H  -4.862184  -0.325126  -0.027961
H  -3.902788   0.829737  -0.838554
H  -4.025695   1.007489   0.923557
C  -1.407885   0.201249  -0.003030
H  -2.737996  -1.259653  -0.782000
H  -2.669016  -1.241192   0.918905
C  -0.150818  -0.698321   0.032091
H  -1.385860   0.865522   0.865134
H  -1.373748   0.843926  -0.903951
H  -0.119601  -1.353722   0.934301
H   0.736551  -0.129683   0.057510
H  -0.062285  -1.367048  -0.831265
