butane_opt
 OpenBabel08242015413D

 14 13  0  0  0  0  0  0  0  0999 V2000
   -3.9523    0.2564    0.0373 C   0  0  0  0  0  0  0  0  0  0  0  0
   -2.7069   -0.6054    0.0278 C   0  0  0  0  0  0  0  0  0  0  0  0
   -4.8669   -0.3463   -0.0552 H   0  0  0  0  0  0  0  0  0  0  0  0
   -3.9118    0.7410   -0.7836 H   0  0  0  0  0  0  0  0  0  0  0  0
   -4.0180    1.0246    0.9656 H   0  0  0  0  0  0  0  0  0  0  0  0
   -1.4067    0.1956   -0.0209 C   0  0  0  0  0  0  0  0  0  0  0  0
   -2.7066   -1.2903   -0.8110 H   0  0  0  0  0  0  0  0  0  0  0  0
   -2.7420   -1.2212    0.9165 H   0  0  0  0  0  0  0  0  0  0  0  0
   -0.1458   -0.7096    0.0476 C   0  0  0  0  0  0  0  0  0  0  0  0
   -1.3785    0.8888    0.8343 H   0  0  0  0  0  0  0  0  0  0  0  0
   -1.3969    0.8635   -0.9255 H   0  0  0  0  0  0  0  0  0  0  0  0
   -0.1546   -1.3790    0.9515 H   0  0  0  0  0  0  0  0  0  0  0  0
    0.7821   -0.1051    0.0132 H   0  0  0  0  0  0  0  0  0  0  0  0
   -0.0852   -1.2959   -0.7445 H   0  0  0  0  0  0  0  0  0  0  0  0
  1  5  1  0  0  0  0
  2  1  1  0  0  0  0
  2  8  1  0  0  0  0
  3  1  1  0  0  0  0
  4  1  1  0  0  0  0
  6  2  1  0  0  0  0
  6  9  1  0  0  0  0
  6 10  1  0  0  0  0
  7  2  1  0  0  0  0
  9 12  1  0  0  0  0
 11  6  1  0  0  0  0
 13  9  1  0  0  0  0
 14  9  1  0  0  0  0
M  END
$$$$
