14
butane_opt
C  -3.954026   0.255702   0.032957
C  -2.707423  -0.605998   0.009271
H  -4.839439  -0.335215  -0.014699
H  -3.967273   0.841927  -0.861418
H  -3.937967   0.928901   0.908800
C  -1.410719   0.193580   0.013736
H  -2.777806  -1.262856  -0.834511
H  -2.740353  -1.233482   0.896561
C  -0.137870  -0.699522   0.046255
H  -1.406370   0.879514   0.873005
H  -1.421809   0.814421  -0.845504
H  -0.018305  -1.448271   1.007855
H   0.766084  -0.130332  -0.136969
H  -0.166563  -1.245200  -0.768910
