14
butane_opt
C  -3.953983   0.249423   0.045291
C  -2.703825  -0.602553  -0.007454
H  -4.901623  -0.359789   0.084887
H  -4.020692   0.855049  -0.851686
H  -3.912538   0.936301   0.931226
C  -1.407152   0.200816  -0.009089
H  -2.758130  -1.282126  -0.861631
H  -2.680830  -1.203851   0.861670
C  -0.142116  -0.702732   0.069346
H  -1.392661   0.904791   0.872108
H  -1.351484   0.824769  -0.923655
H  -0.085844  -1.435782   1.026461
H   0.725081  -0.153451  -0.109817
H  -0.148423  -1.306034  -0.762265
