butane_opt
 OpenBabel08242015413D

 14 13  0  0  0  0  0  0  0  0999 V2000
   -3.9511    0.2585    0.0268 C   0  0  0  0  0  0  0  0  0  0  0  0
   -2.7195   -0.6020    0.0462 C   0  0  0  0  0  0  0  0  0  0  0  0
   -4.8941   -0.3718   -0.0971 H   0  0  0  0  0  0  0  0  0  0  0  0
   -3.9267    0.7717   -0.8093 H   0  0  0  0  0  0  0  0  0  0  0  0
   -3.9544    1.0261    0.9478 H   0  0  0  0  0  0  0  0  0  0  0  0
   -1.4003    0.1983   -0.0170 C   0  0  0  0  0  0  0  0  0  0  0  0
   -2.7163   -1.2847   -0.7928 H   0  0  0  0  0  0  0  0  0  0  0  0
   -2.7054   -1.2397    0.9230 H   0  0  0  0  0  0  0  0  0  0  0  0
   -0.1415   -0.7056    0.0353 C   0  0  0  0  0  0  0  0  0  0  0  0
   -1.3667    0.8527    0.8381 H   0  0  0  0  0  0  0  0  0  0  0  0
   -1.3825    0.8133   -0.8760 H   0  0  0  0  0  0  0  0  0  0  0  0
   -0.1664   -1.3445    0.9625 H   0  0  0  0  0  0  0  0  0  0  0  0
    0.7380   -0.1690    0.0391 H   0  0  0  0  0  0  0  0  0  0  0  0
   -0.0892   -1.3245   -0.7827 H   0  0  0  0  0  0  0  0  0  0  0  0
  1  2  1  0  0  0  0
  1  5  1  0  0  0  0
  2  8  1  0  0  0  0
  3  1  1  0  0  0  0
  4  1  1  0  0  0  0
  6  9  1  0  0  0  0
  6  2  1  0  0  0  0
  6 10  1  0  0  0  0
  7  2  1  0  0  0  0
  9 13  1  0  0  0  0
  9 12  1  0  0  0  0
 11  6  1  0  0  0  0
 14  9  1  0  0  0  0
M  END
$$$$
