14
butane_opt
C  -3.937131   0.268441  -0.021334
C  -2.706464  -0.616957   0.085106
H  -4.853342  -0.354186  -0.071728
H  -3.943706   0.833187  -0.872117
H  -4.006853   0.932857   0.843623
C  -1.403784   0.196811   0.036691
H  -2.719703  -1.243398  -0.727710
H  -2.760041  -1.289996   1.019216
C  -0.161249  -0.697490   0.001009
H  -1.384246   0.875610   0.925653
H  -1.366336   0.794407  -0.834793
H  -0.064157  -1.277104   0.867060
H   0.726966  -0.134597  -0.015909
H  -0.150034  -1.422449  -0.921306
