14
butane_opt
C  -3.934308   0.266735   0.019684
C  -2.698364  -0.616494   0.046950
H  -4.854254  -0.317226  -0.049493
H  -3.925992   0.816446  -0.855390
H  -3.980889   1.017140   0.919567
C  -1.406835   0.172511  -0.004188
H  -2.780141  -1.244468  -0.794992
H  -2.695893  -1.236822   0.925104
C  -0.168118  -0.692690   0.035394
H  -1.398459   0.869809   0.882936
H  -1.402357   0.784355  -0.885076
H  -0.158817  -1.320052   0.946184
H   0.778625  -0.066215  -0.013647
H  -0.122483  -1.333711  -0.807651
