14
butane_opt
C  -3.946978   0.258554   0.010379
C  -2.718469  -0.604203   0.039494
H  -4.843126  -0.355752   0.026749
H  -3.985956   0.875564  -0.893408
H  -3.918184   0.883617   0.829836
C  -1.405697   0.197012   0.032879
H  -2.727619  -1.274271  -0.823347
H  -2.759371  -1.264901   0.947221
C  -0.137124  -0.704409   0.022471
H  -1.361769   0.905299   0.885640
H  -1.445855   0.848774  -0.858155
H  -0.085860  -1.357964   0.936988
H   0.754796  -0.136281  -0.040423
H  -0.149800  -1.362026  -0.831928
