14
butane_opt
C  -3.929160   0.257969   0.005495
C  -2.698472  -0.602335   0.048518
H  -4.863210  -0.372625   0.119886
H  -3.925289   0.941792  -0.927064
H  -3.955217   0.801710   0.768967
C  -1.404859   0.201676   0.031312
H  -2.731260  -1.312006  -0.837194
H  -2.717938  -1.237727   0.921500
C  -0.173465  -0.704860   0.020114
H  -1.389998   0.928650   0.925987
H  -1.428483   0.824429  -0.847021
H  -0.089745  -1.314002   0.911060
H   0.730011  -0.143240  -0.024012
H  -0.177243  -1.420659  -0.845760
