14
butane_opt
C  -3.945443   0.275254   0.040393
C  -2.685699  -0.622750   0.006106
H  -4.869441  -0.314116   0.048427
H  -3.965351   0.835775  -0.837471
H  -3.903714   0.969240   0.934063
C  -1.409529   0.164714  -0.007319
H  -2.718010  -1.351527  -0.872075
H  -2.685444  -1.215694   0.845174
C  -0.168713  -0.682730   0.056406
H  -1.357266   0.900626   0.873589
H  -1.429357   0.802972  -0.918998
H  -0.118629  -1.433875   1.048374
H   0.733371  -0.079125  -0.076611
H  -0.207430  -1.195748  -0.724717
