butane_opt
 OpenBabel08242015413D

 14 13  0  0  0  0  0  0  0  0999 V2000
   -3.9482    0.2728    0.0444 C   0  0  0  0  0  0  0  0  0  0  0  0
   -2.7057   -0.6155    0.0202 C   0  0  0  0  0  0  0  0  0  0  0  0
   -4.8447   -0.3014    0.0518 H   0  0  0  0  0  0  0  0  0  0  0  0
   -3.9822    0.8339   -0.8252 H   0  0  0  0  0  0  0  0  0  0  0  0
   -3.9947    0.9749    0.9442 H   0  0  0  0  0  0  0  0  0  0  0  0
   -1.3936    0.1696   -0.0341 C   0  0  0  0  0  0  0  0  0  0  0  0
   -2.7426   -1.3122   -0.8722 H   0  0  0  0  0  0  0  0  0  0  0  0
   -2.7195   -1.2793    0.9386 H   0  0  0  0  0  0  0  0  0  0  0  0
   -0.1567   -0.6889    0.0602 C   0  0  0  0  0  0  0  0  0  0  0  0
   -1.4080    0.8481    0.8170 H   0  0  0  0  0  0  0  0  0  0  0  0
   -1.4133    0.8059   -0.9379 H   0  0  0  0  0  0  0  0  0  0  0  0
   -0.1998   -1.2673    0.9350 H   0  0  0  0  0  0  0  0  0  0  0  0
    0.7710   -0.0567    0.1227 H   0  0  0  0  0  0  0  0  0  0  0  0
   -0.0479   -1.3669   -0.8161 H   0  0  0  0  0  0  0  0  0  0  0  0
  1  3  1  0  0  0  0
  1  5  1  0  0  0  0
  2  1  1  0  0  0  0
  2  8  1  0  0  0  0
  4  1  1  0  0  0  0
  6  2  1  0  0  0  0
  6  9  1  0  0  0  0
  6 10  1  0  0  0  0
  7  2  1  0  0  0  0
  9 13  1  0  0  0  0
  9 12  1  0  0  0  0
 11  6  1  0  0  0  0
 14  9  1  0  0  0  0
M  END
$$$$
