butane_opt
 OpenBabel08242015413D

 14 13  0  0  0  0  0  0  0  0999 V2000
   -3.9439    0.2732    0.0337 C   0  0  0  0  0  0  0  0  0  0  0  0
   -2.6930   -0.6310    0.0272 C   0  0  0  0  0  0  0  0  0  0  0  0
   -4.8111   -0.3158   -0.0783 H   0  0  0  0  0  0  0  0  0  0  0  0
   -3.9387    0.7724   -0.7885 H   0  0  0  0  0  0  0  0  0  0  0  0
   -3.9798    1.1084    0.9831 H   0  0  0  0  0  0  0  0  0  0  0  0
   -1.4054    0.1747   -0.0086 C   0  0  0  0  0  0  0  0  0  0  0  0
   -2.6675   -1.3056   -0.8353 H   0  0  0  0  0  0  0  0  0  0  0  0
   -2.7152   -1.3016    0.9312 H   0  0  0  0  0  0  0  0  0  0  0  0
   -0.1698   -0.6855    0.0446 C   0  0  0  0  0  0  0  0  0  0  0  0
   -1.4079    0.8268    0.8342 H   0  0  0  0  0  0  0  0  0  0  0  0
   -1.3830    0.8513   -0.9485 H   0  0  0  0  0  0  0  0  0  0  0  0
   -0.1633   -1.3445    0.9745 H   0  0  0  0  0  0  0  0  0  0  0  0
    0.7485   -0.0781   -0.0128 H   0  0  0  0  0  0  0  0  0  0  0  0
   -0.1662   -1.2550   -0.7560 H   0  0  0  0  0  0  0  0  0  0  0  0
  1  5  1  0  0  0  0
  2  1  1  0  0  0  0
  2  8  1  0  0  0  0
  3  1  1  0  0  0  0
  4  1  1  0  0  0  0
  6  2  1  0  0  0  0
  6  9  1  0  0  0  0
  6 10  1  0  0  0  0
  7  2  1  0  0  0  0
  9 12  1  0  0  0  0
 11  6  1  0  0  0  0
 13  9  1  0  0  0  0
 14  9  1  0  0  0  0
M  END
$$$$
