14
butane_opt
C  -3.940067   0.267792  -0.003008
C  -2.709864  -0.623948   0.067939
H  -4.857215  -0.301264  -0.006286
H  -3.986156   0.851736  -0.880909
H  -4.017881   0.945563   0.848577
C  -1.409071   0.189951   0.029716
H  -2.676395  -1.271489  -0.769535
H  -2.735718  -1.304602   0.981406
C  -0.148012  -0.692822   0.012163
H  -1.392146   0.838141   0.843610
H  -1.379105   0.845653  -0.867950
H  -0.162743  -1.240242   0.851293
H   0.768062  -0.079972   0.045397
H  -0.098773  -1.450269  -0.896329
