butane_opt
 OpenBabel08242015413D

 14 13  0  0  0  0  0  0  0  0999 V2000
   -3.9422    0.2723    0.0251 C   0  0  0  0  0  0  0  0  0  0  0  0
   -2.6932   -0.6156    0.0123 C   0  0  0  0  0  0  0  0  0  0  0  0
   -4.8581   -0.3504    0.0333 H   0  0  0  0  0  0  0  0  0  0  0  0
   -3.9858    0.8320   -0.8215 H   0  0  0  0  0  0  0  0  0  0  0  0
   -3.9052    0.9540    0.9250 H   0  0  0  0  0  0  0  0  0  0  0  0
   -1.4067    0.1713    0.0129 C   0  0  0  0  0  0  0  0  0  0  0  0
   -2.6723   -1.2878   -0.8253 H   0  0  0  0  0  0  0  0  0  0  0  0
   -2.6929   -1.2410    0.8776 H   0  0  0  0  0  0  0  0  0  0  0  0
   -0.1744   -0.6879    0.0413 C   0  0  0  0  0  0  0  0  0  0  0  0
   -1.3941    0.8524    0.8709 H   0  0  0  0  0  0  0  0  0  0  0  0
   -1.4076    0.8122   -0.8836 H   0  0  0  0  0  0  0  0  0  0  0  0
   -0.0776   -1.4032    1.0121 H   0  0  0  0  0  0  0  0  0  0  0  0
    0.7523   -0.0940   -0.0845 H   0  0  0  0  0  0  0  0  0  0  0  0
   -0.1929   -1.2211   -0.7455 H   0  0  0  0  0  0  0  0  0  0  0  0
  1  3  1  0  0  0  0
  1  5  1  0  0  0  0
  2  6  1  0  0  0  0
  2  1  1  0  0  0  0
  2  8  1  0  0  0  0
  4  1  1  0  0  0  0
  6  9  1  0  0  0  0
  6 10  1  0  0  0  0
  7  2  1  0  0  0  0
  9 12  1  0  0  0  0
 11  6  1  0  0  0  0
 13  9  1  0  0  0  0
 14  9  1  0  0  0  0
M  END
$$$$
