butane_opt
 OpenBabel08242015413D

 14 13  0  0  0  0  0  0  0  0999 V2000
   -3.9448    0.2687    0.0139 C   0  0  0  0  0  0  0  0  0  0  0  0
   -2.7008   -0.6131    0.0344 C   0  0  0  0  0  0  0  0  0  0  0  0
   -4.8554   -0.3582    0.1545 H   0  0  0  0  0  0  0  0  0  0  0  0
   -4.0292    0.9797   -0.9232 H   0  0  0  0  0  0  0  0  0  0  0  0
   -3.9396    0.8237    0.8087 H   0  0  0  0  0  0  0  0  0  0  0  0
   -1.3998    0.1910    0.0162 C   0  0  0  0  0  0  0  0  0  0  0  0
   -2.7472   -1.3138   -0.8344 H   0  0  0  0  0  0  0  0  0  0  0  0
   -2.7684   -1.2584    0.9109 H   0  0  0  0  0  0  0  0  0  0  0  0
   -0.1500   -0.7019    0.0281 C   0  0  0  0  0  0  0  0  0  0  0  0
   -1.3954    0.9210    0.9075 H   0  0  0  0  0  0  0  0  0  0  0  0
   -1.3965    0.7577   -0.8280 H   0  0  0  0  0  0  0  0  0  0  0  0
   -0.1265   -1.3007    0.9170 H   0  0  0  0  0  0  0  0  0  0  0  0
    0.7638   -0.1032    0.0303 H   0  0  0  0  0  0  0  0  0  0  0  0
   -0.1807   -1.3498   -0.8217 H   0  0  0  0  0  0  0  0  0  0  0  0
  1  2  1  0  0  0  0
  1  3  1  0  0  0  0
  1  5  1  0  0  0  0
  2  8  1  0  0  0  0
  4  1  1  0  0  0  0
  6  9  1  0  0  0  0
  6  2  1  0  0  0  0
  6 10  1  0  0  0  0
  7  2  1  0  0  0  0
  9 13  1  0  0  0  0
  9 12  1  0  0  0  0
 11  6  1  0  0  0  0
 14  9  1  0  0  0  0
M  END
$$$$
