butane_opt
 OpenBabel08242015413D

 14 13  0  0  0  0  0  0  0  0999 V2000
   -3.9541    0.2715   -0.0090 C   0  0  0  0  0  0  0  0  0  0  0  0
   -2.6954   -0.6216    0.0583 C   0  0  0  0  0  0  0  0  0  0  0  0
   -4.8600   -0.3185    0.0497 H   0  0  0  0  0  0  0  0  0  0  0  0
   -3.9634    0.8980   -0.9158 H   0  0  0  0  0  0  0  0  0  0  0  0
   -4.0206    0.9339    0.8485 H   0  0  0  0  0  0  0  0  0  0  0  0
   -1.3943    0.1777    0.0363 C   0  0  0  0  0  0  0  0  0  0  0  0
   -2.6849   -1.3101   -0.7873 H   0  0  0  0  0  0  0  0  0  0  0  0
   -2.7659   -1.2227    0.9631 H   0  0  0  0  0  0  0  0  0  0  0  0
   -0.1561   -0.6899    0.0078 C   0  0  0  0  0  0  0  0  0  0  0  0
   -1.3389    0.9074    0.9178 H   0  0  0  0  0  0  0  0  0  0  0  0
   -1.4327    0.7330   -0.7801 H   0  0  0  0  0  0  0  0  0  0  0  0
   -0.1287   -1.3745    0.9733 H   0  0  0  0  0  0  0  0  0  0  0  0
    0.7787   -0.0722   -0.1008 H   0  0  0  0  0  0  0  0  0  0  0  0
   -0.2065   -1.2960   -0.8379 H   0  0  0  0  0  0  0  0  0  0  0  0
  1  3  1  0  0  0  0
  1  2  1  0  0  0  0
  1  5  1  0  0  0  0
  2  8  1  0  0  0  0
  4  1  1  0  0  0  0
  6  2  1  0  0  0  0
  6 10  1  0  0  0  0
  7  2  1  0  0  0  0
  9  6  1  0  0  0  0
  9 12  1  0  0  0  0
 11  6  1  0  0  0  0
 13  9  1  0  0  0  0
 14  9  1  0  0  0  0
M  END
$$$$
