butane_opt
 OpenBabel08242015413D

 14 13  0  0  0  0  0  0  0  0999 V2000
   -3.9373    0.2689    0.0204 C   0  0  0  0  0  0  0  0  0  0  0  0
   -2.7001   -0.6183    0.0339 C   0  0  0  0  0  0  0  0  0  0  0  0
   -4.8694   -0.3413    0.0122 H   0  0  0  0  0  0  0  0  0  0  0  0
   -3.9306    0.8817   -0.8883 H   0  0  0  0  0  0  0  0  0  0  0  0
   -3.9936    0.9706    0.9021 H   0  0  0  0  0  0  0  0  0  0  0  0
   -1.4030    0.1789    0.0172 C   0  0  0  0  0  0  0  0  0  0  0  0
   -2.7253   -1.3425   -0.8582 H   0  0  0  0  0  0  0  0  0  0  0  0
   -2.6917   -1.1638    0.8888 H   0  0  0  0  0  0  0  0  0  0  0  0
   -0.1602   -0.6986    0.0343 C   0  0  0  0  0  0  0  0  0  0  0  0
   -1.3869    0.8671    0.8699 H   0  0  0  0  0  0  0  0  0  0  0  0
   -1.3828    0.7784   -0.8514 H   0  0  0  0  0  0  0  0  0  0  0  0
   -0.1207   -1.4135    1.0014 H   0  0  0  0  0  0  0  0  0  0  0  0
    0.7670   -0.0772   -0.1262 H   0  0  0  0  0  0  0  0  0  0  0  0
   -0.2723   -1.2038   -0.7628 H   0  0  0  0  0  0  0  0  0  0  0  0
  1  2  1  0  0  0  0
  1  5  1  0  0  0  0
  2  8  1  0  0  0  0
  3  1  1  0  0  0  0
  4  1  1  0  0  0  0
  6  2  1  0  0  0  0
  6  9  1  0  0  0  0
  6 10  1  0  0  0  0
  7  2  1  0  0  0  0
  9 12  1  0  0  0  0
 11  6  1  0  0  0  0
 13  9  1  0  0  0  0
 14  9  1  0  0  0  0
M  END
$$$$
