butane_opt
 OpenBabel08242015413D

 14 13  0  0  0  0  0  0  0  0999 V2000
   -3.9631    0.2731   -0.0127 C   0  0  0  0  0  0  0  0  0  0  0  0
   -2.7069   -0.6320    0.0779 C   0  0  0  0  0  0  0  0  0  0  0  0
   -4.8423   -0.3195    0.0586 H   0  0  0  0  0  0  0  0  0  0  0  0
   -3.9763    0.9735   -0.9591 H   0  0  0  0  0  0  0  0  0  0  0  0
   -3.9648    0.9233    0.8325 H   0  0  0  0  0  0  0  0  0  0  0  0
   -1.3919    0.1814    0.0334 C   0  0  0  0  0  0  0  0  0  0  0  0
   -2.6327   -1.2983   -0.7424 H   0  0  0  0  0  0  0  0  0  0  0  0
   -2.7586   -1.2783    0.9827 H   0  0  0  0  0  0  0  0  0  0  0  0
   -0.1566   -0.6836    0.0035 C   0  0  0  0  0  0  0  0  0  0  0  0
   -1.3372    0.8325    0.8742 H   0  0  0  0  0  0  0  0  0  0  0  0
   -1.3848    0.8001   -0.8663 H   0  0  0  0  0  0  0  0  0  0  0  0
   -0.1090   -1.1707    0.8310 H   0  0  0  0  0  0  0  0  0  0  0  0
    0.7390   -0.1098    0.1285 H   0  0  0  0  0  0  0  0  0  0  0  0
   -0.1406   -1.4845   -0.9353 H   0  0  0  0  0  0  0  0  0  0  0  0
  1  3  1  0  0  0  0
  1  2  1  0  0  0  0
  1  5  1  0  0  0  0
  2  8  1  0  0  0  0
  4  1  1  0  0  0  0
  6  2  1  0  0  0  0
  6 10  1  0  0  0  0
  7  2  1  0  0  0  0
  9  6  1  0  0  0  0
  9 13  1  0  0  0  0
  9 12  1  0  0  0  0
 11  6  1  0  0  0  0
 14  9  1  0  0  0  0
M  END
$$$$
