14
butane_opt
C  -3.938666   0.268674  -0.003766
C  -2.691536  -0.627441   0.076171
H  -4.812618  -0.306536   0.011411
H  -3.963564   0.947961  -0.929371
H  -3.956325   0.882852   0.807866
C  -1.416273   0.178446   0.015792
H  -2.729252  -1.219267  -0.733135
H  -2.667699  -1.311614   0.986590
C  -0.166642  -0.692508   0.010624
H  -1.366702   0.918441   0.895987
H  -1.395423   0.773697  -0.838634
H  -0.219275  -1.156833   0.810503
H   0.764012  -0.055892   0.155400
H  -0.122314  -1.473547  -0.940058
