14
butane_opt
C  -3.949556   0.271629   0.002597
C  -2.701137  -0.637215   0.043877
H  -4.837987  -0.281968   0.136761
H  -4.042578   0.970144  -0.936929
H  -3.944655   0.875738   0.842446
C  -1.409435   0.182212   0.021881
H  -2.696090  -1.267997  -0.782790
H  -2.730279  -1.262531   0.929796
C  -0.156046  -0.688462   0.019087
H  -1.321009   0.914263   0.908856
H  -1.410005   0.775070  -0.835575
H  -0.125509  -1.280449   0.897534
H   0.801268  -0.069221   0.076720
H  -0.130540  -1.375418  -0.848449
