14
butane_opt
C  -3.952575   0.266962  -0.000729
C  -2.707326  -0.623941   0.056528
H  -4.833124  -0.273979   0.109559
H  -3.984405   1.009126  -0.991303
H  -4.000490   0.793976   0.740920
C  -1.396477   0.184641   0.048526
H  -2.697525  -1.313777  -0.825463
H  -2.701964  -1.240591   0.948421
C  -0.149196  -0.693166   0.009088
H  -1.340267   0.898740   0.943534
H  -1.427237   0.798834  -0.818802
H  -0.155790  -1.276418   0.864090
H   0.775187  -0.078188  -0.033796
H  -0.188823  -1.399574  -0.875635
