butane_opt
 OpenBabel08242015413D

 14 13  0  0  0  0  0  0  0  0999 V2000
   -3.9417    0.2765    0.0420 C   0  0  0  0  0  0  0  0  0  0  0  0
   -2.6949   -0.6348    0.0052 C   0  0  0  0  0  0  0  0  0  0  0  0
   -4.8388   -0.3035    0.0219 H   0  0  0  0  0  0  0  0  0  0  0  0
   -3.9982    0.8264   -0.8120 H   0  0  0  0  0  0  0  0  0  0  0  0
   -3.9426    1.0079    0.9387 H   0  0  0  0  0  0  0  0  0  0  0  0
   -1.4055    0.1731    0.0075 C   0  0  0  0  0  0  0  0  0  0  0  0
   -2.7021   -1.3530   -0.8834 H   0  0  0  0  0  0  0  0  0  0  0  0
   -2.7058   -1.1764    0.8066 H   0  0  0  0  0  0  0  0  0  0  0  0
   -0.1703   -0.6845    0.0523 C   0  0  0  0  0  0  0  0  0  0  0  0
   -1.4392    0.8106    0.8265 H   0  0  0  0  0  0  0  0  0  0  0  0
   -1.3746    0.8567   -0.9272 H   0  0  0  0  0  0  0  0  0  0  0  0
   -0.1140   -1.4451    1.0603 H   0  0  0  0  0  0  0  0  0  0  0  0
    0.7903   -0.0627   -0.1501 H   0  0  0  0  0  0  0  0  0  0  0  0
   -0.1653   -1.1850   -0.7057 H   0  0  0  0  0  0  0  0  0  0  0  0
  1  5  1  0  0  0  0
  2  6  1  0  0  0  0
  2  1  1  0  0  0  0
  2  8  1  0  0  0  0
  3  1  1  0  0  0  0
  4  1  1  0  0  0  0
  6  9  1  0  0  0  0
  6 10  1  0  0  0  0
  7  2  1  0  0  0  0
  9 12  1  0  0  0  0
 11  6  1  0  0  0  0
 13  9  1  0  0  0  0
 14  9  1  0  0  0  0
M  END
$$$$
