14
butane_opt
C  -3.942999   0.254792  -0.014748
C  -2.699691  -0.609129   0.088332
H  -4.859816  -0.331982  -0.090754
H  -3.876117   0.838212  -0.888679
H  -4.017296   0.960001   0.837093
C  -1.413826   0.194331   0.031726
H  -2.663082  -1.252416  -0.716934
H  -2.762652  -1.231170   1.002912
C  -0.149243  -0.705934  -0.007717
H  -1.345183   0.901082   0.931886
H  -1.445233   0.784081  -0.841133
H  -0.140808  -1.279675   0.876756
H   0.762837  -0.110648   0.022708
H  -0.199388  -1.365792  -0.857749
