butane_opt
 OpenBabel08242015413D

 14 13  0  0  0  0  0  0  0  0999 V2000
   -3.9197    0.2549    0.0013 C   0  0  0  0  0  0  0  0  0  0  0  0
   -2.7055   -0.5981    0.0399 C   0  0  0  0  0  0  0  0  0  0  0  0
   -4.8406   -0.3649    0.0709 H   0  0  0  0  0  0  0  0  0  0  0  0
   -3.9738    0.9061   -0.9228 H   0  0  0  0  0  0  0  0  0  0  0  0
   -3.9436    0.8751    0.8005 H   0  0  0  0  0  0  0  0  0  0  0  0
   -1.4115    0.1919    0.0438 C   0  0  0  0  0  0  0  0  0  0  0  0
   -2.7132   -1.2461   -0.8107 H   0  0  0  0  0  0  0  0  0  0  0  0
   -2.7742   -1.2840    0.9927 H   0  0  0  0  0  0  0  0  0  0  0  0
   -0.1613   -0.7012    0.0136 C   0  0  0  0  0  0  0  0  0  0  0  0
   -1.4221    0.9119    0.9291 H   0  0  0  0  0  0  0  0  0  0  0  0
   -1.4345    0.7924   -0.8120 H   0  0  0  0  0  0  0  0  0  0  0  0
   -0.0667   -1.3529    0.9063 H   0  0  0  0  0  0  0  0  0  0  0  0
    0.7363   -0.1359   -0.0693 H   0  0  0  0  0  0  0  0  0  0  0  0
   -0.2071   -1.3438   -0.8276 H   0  0  0  0  0  0  0  0  0  0  0  0
  1  2  1  0  0  0  0
  1  3  1  0  0  0  0
  1  5  1  0  0  0  0
  2  6  1  0  0  0  0
  2  8  1  0  0  0  0
  4  1  1  0  0  0  0
  6 10  1  0  0  0  0
  7  2  1  0  0  0  0
  9  6  1  0  0  0  0
  9 12  1  0  0  0  0
 11  6  1  0  0  0  0
 13  9  1  0  0  0  0
 14  9  1  0  0  0  0
M  END
$$$$
