14
butane_opt
C  -3.939206   0.259300   0.005700
C  -2.715492  -0.612365   0.057440
H  -4.872866  -0.355144   0.041325
H  -4.001585   0.896774  -0.895712
H  -3.950155   0.874637   0.824719
C  -1.407273   0.203683   0.007996
H  -2.697879  -1.227133  -0.723053
H  -2.759690  -1.275935   0.989581
C  -0.149299  -0.705068   0.025385
H  -1.364849   0.901705   0.882431
H  -1.352425   0.797822  -0.879766
H  -0.113657  -1.200124   0.815454
H   0.692604  -0.145785   0.128340
H  -0.060925  -1.498866  -0.921262
