14
butane_opt
C  -3.938092   0.270980   0.030570
C  -2.693150  -0.623639   0.021025
H  -4.813723  -0.281274   0.027590
H  -3.997408   0.839514  -0.836812
H  -3.916550   0.973205   0.921242
C  -1.405907   0.177631   0.001658
H  -2.749678  -1.361879  -0.864524
H  -2.720949  -1.200301   0.885469
C  -0.170797  -0.686074   0.049961
H  -1.420526   0.807267   0.800097
H  -1.376989   0.828090  -0.897421
H  -0.116603  -1.342009   0.982686
H   0.761825  -0.107834  -0.060521
H  -0.186387  -1.280494  -0.750185
