14
butane_opt
C  -3.948239   0.268929  -0.001264
C  -2.710101  -0.617821   0.053766
H  -4.907055  -0.375623   0.120371
H  -3.970207   0.944740  -0.943573
H  -3.963217   0.850990   0.797515
C  -1.402995   0.191473   0.025197
H  -2.724139  -1.242832  -0.723279
H  -2.731626  -1.248949   0.953780
C  -0.148197  -0.698934   0.020184
H  -1.366267   0.879974   0.890818
H  -1.378177   0.816521  -0.858735
H  -0.094177  -1.202161   0.833123
H   0.759716  -0.113235   0.091489
H  -0.132997  -1.511713  -0.915077
