14
butane_opt
C  -3.949097   0.253421  -0.020989
C  -2.704814  -0.605204   0.081420
H  -4.858413  -0.350936  -0.072288
H  -3.913800   0.832871  -0.889198
H  -3.990840   0.978765   0.865721
C  -1.418020   0.190632   0.043059
H  -2.660465  -1.238589  -0.745701
H  -2.791731  -1.267606   1.025672
C  -0.145735  -0.704162   0.002332
H  -1.342563   0.943670   0.929312
H  -1.423763   0.790296  -0.839243
H  -0.072536  -1.337040   0.887730
H   0.772815  -0.070672  -0.105324
H  -0.131794  -1.374345  -0.881178
