14
butane_opt
C  -3.933427   0.266495   0.001835
C  -2.694950  -0.615913   0.044777
H  -4.819153  -0.299494   0.150613
H  -4.035480   0.990907  -0.935584
H  -3.852102   0.835507   0.813213
C  -1.406360   0.176206   0.027181
H  -2.701983  -1.321122  -0.830306
H  -2.734141  -1.283136   0.947174
C  -0.172751  -0.683617   0.026023
H  -1.396577   0.860291   0.883799
H  -1.449420   0.799960  -0.854781
H  -0.140278  -1.227060   0.864267
H   0.738766  -0.112017   0.061339
H  -0.152960  -1.421167  -0.874492
