14
butane_opt
C  -3.940054   0.260430   0.054094
C  -2.702067  -0.612928   0.008999
H  -4.875597  -0.352866   0.113183
H  -4.010889   0.857787  -0.831932
H  -3.964988   0.926362   0.900658
C  -1.410296   0.197241  -0.044570
H  -2.791824  -1.306384  -0.894069
H  -2.701267  -1.252224   0.909370
C  -0.148939  -0.696478   0.068537
H  -1.418978   0.889761   0.813110
H  -1.372483   0.806839  -0.912104
H  -0.158845  -1.282504   0.966327
H   0.712626  -0.152124   0.135183
H  -0.018641  -1.395674  -0.806615
