butane_opt
 OpenBabel08242015413D

 14 13  0  0  0  0  0  0  0  0999 V2000
   -3.9413    0.2574    0.0264 C   0  0  0  0  0  0  0  0  0  0  0  0
   -2.6994   -0.6062    0.0259 C   0  0  0  0  0  0  0  0  0  0  0  0
   -4.8881   -0.3628    0.0209 H   0  0  0  0  0  0  0  0  0  0  0  0
   -3.9052    0.8520   -0.8217 H   0  0  0  0  0  0  0  0  0  0  0  0
   -3.9583    0.9474    0.9008 H   0  0  0  0  0  0  0  0  0  0  0  0
   -1.4151    0.1982    0.0135 C   0  0  0  0  0  0  0  0  0  0  0  0
   -2.6815   -1.3343   -0.8875 H   0  0  0  0  0  0  0  0  0  0  0  0
   -2.7391   -1.1955    0.8952 H   0  0  0  0  0  0  0  0  0  0  0  0
   -0.1600   -0.7024    0.0378 C   0  0  0  0  0  0  0  0  0  0  0  0
   -1.3825    0.8266    0.8306 H   0  0  0  0  0  0  0  0  0  0  0  0
   -1.3987    0.8222   -0.8734 H   0  0  0  0  0  0  0  0  0  0  0  0
   -0.0726   -1.4128    0.9871 H   0  0  0  0  0  0  0  0  0  0  0  0
    0.7440   -0.1137   -0.0921 H   0  0  0  0  0  0  0  0  0  0  0  0
   -0.1492   -1.2656   -0.7436 H   0  0  0  0  0  0  0  0  0  0  0  0
  1  5  1  0  0  0  0
  2  1  1  0  0  0  0
  2  8  1  0  0  0  0
  3  1  1  0  0  0  0
  4  1  1  0  0  0  0
  6  2  1  0  0  0  0
  6  9  1  0  0  0  0
  6 10  1  0  0  0  0
  7  2  1  0  0  0  0
  9 12  1  0  0  0  0
 11  6  1  0  0  0  0
 13  9  1  0  0  0  0
 14  9  1  0  0  0  0
M  END
$$$$
