14
butane_opt
C  -3.939658   0.265382   0.002378
C  -2.702544  -0.605831   0.048362
H  -4.883227  -0.374926   0.131377
H  -3.975682   0.994658  -0.998024
H  -3.915884   0.816859   0.787260
C  -1.396955   0.188069   0.035235
H  -2.702332  -1.284983  -0.797627
H  -2.728270  -1.281074   0.983584
C  -0.162247  -0.699634   0.012114
H  -1.351659   0.918013   0.916279
H  -1.454286   0.772182  -0.801516
H  -0.204230  -1.266544   0.885720
H   0.750283  -0.109448   0.037093
H  -0.132535  -1.433621  -0.900029
