butane_opt
 OpenBabel08242015413D

 14 13  0  0  0  0  0  0  0  0999 V2000
   -3.9349    0.2557   -0.0049 C   0  0  0  0  0  0  0  0  0  0  0  0
   -2.7078   -0.6081    0.0519 C   0  0  0  0  0  0  0  0  0  0  0  0
   -4.8583   -0.3461    0.1340 H   0  0  0  0  0  0  0  0  0  0  0  0
   -4.0162    0.9510   -0.9454 H   0  0  0  0  0  0  0  0  0  0  0  0
   -3.9129    0.8326    0.7615 H   0  0  0  0  0  0  0  0  0  0  0  0
   -1.4069    0.2002    0.0385 C   0  0  0  0  0  0  0  0  0  0  0  0
   -2.6900   -1.2209   -0.7427 H   0  0  0  0  0  0  0  0  0  0  0  0
   -2.8124   -1.2715    0.9966 H   0  0  0  0  0  0  0  0  0  0  0  0
   -0.1555   -0.7020    0.0053 C   0  0  0  0  0  0  0  0  0  0  0  0
   -1.3644    0.9081    0.8999 H   0  0  0  0  0  0  0  0  0  0  0  0
   -1.4039    0.7884   -0.8096 H   0  0  0  0  0  0  0  0  0  0  0  0
   -0.1051   -1.2616    0.8591 H   0  0  0  0  0  0  0  0  0  0  0  0
    0.7149   -0.1486    0.0998 H   0  0  0  0  0  0  0  0  0  0  0  0
   -0.1090   -1.4634   -0.9148 H   0  0  0  0  0  0  0  0  0  0  0  0
  1  2  1  0  0  0  0
  1  3  1  0  0  0  0
  1  5  1  0  0  0  0
  2  8  1  0  0  0  0
  4  1  1  0  0  0  0
  6  2  1  0  0  0  0
  6 10  1  0  0  0  0
  7  2  1  0  0  0  0
  9  6  1  0  0  0  0
  9 13  1  0  0  0  0
  9 12  1  0  0  0  0
 11  6  1  0  0  0  0
 14  9  1  0  0  0  0
M  END
$$$$
