butane_opt
 OpenBabel08242015413D

 14 13  0  0  0  0  0  0  0  0999 V2000
   -3.9273    0.2475    0.0352 C   0  0  0  0  0  0  0  0  0  0  0  0
   -2.7037   -0.5970    0.0105 C   0  0  0  0  0  0  0  0  0  0  0  0
   -4.8375   -0.3694   -0.0087 H   0  0  0  0  0  0  0  0  0  0  0  0
   -3.9494    0.7899   -0.7969 H   0  0  0  0  0  0  0  0  0  0  0  0
   -3.9327    1.0159    0.9542 H   0  0  0  0  0  0  0  0  0  0  0  0
   -1.4185    0.1961   -0.0057 C   0  0  0  0  0  0  0  0  0  0  0  0
   -2.7525   -1.2782   -0.8453 H   0  0  0  0  0  0  0  0  0  0  0  0
   -2.6715   -1.2207    0.8943 H   0  0  0  0  0  0  0  0  0  0  0  0
   -0.1578   -0.7025    0.0542 C   0  0  0  0  0  0  0  0  0  0  0  0
   -1.4427    0.8657    0.8380 H   0  0  0  0  0  0  0  0  0  0  0  0
   -1.3909    0.8185   -0.9262 H   0  0  0  0  0  0  0  0  0  0  0  0
   -0.0581   -1.4115    1.0073 H   0  0  0  0  0  0  0  0  0  0  0  0
    0.7178   -0.1574   -0.0707 H   0  0  0  0  0  0  0  0  0  0  0  0
   -0.2108   -1.2549   -0.7174 H   0  0  0  0  0  0  0  0  0  0  0  0
  1  5  1  0  0  0  0
  2  1  1  0  0  0  0
  2  8  1  0  0  0  0
  3  1  1  0  0  0  0
  4  1  1  0  0  0  0
  6  2  1  0  0  0  0
  6  9  1  0  0  0  0
  6 10  1  0  0  0  0
  7  2  1  0  0  0  0
  9 12  1  0  0  0  0
 11  6  1  0  0  0  0
 13  9  1  0  0  0  0
 14  9  1  0  0  0  0
M  END
$$$$
