butane_opt
 OpenBabel08242015413D

 14 13  0  0  0  0  0  0  0  0999 V2000
   -3.9434    0.2579   -0.0114 C   0  0  0  0  0  0  0  0  0  0  0  0
   -2.7090   -0.6136    0.0801 C   0  0  0  0  0  0  0  0  0  0  0  0
   -4.8818   -0.3608   -0.1165 H   0  0  0  0  0  0  0  0  0  0  0  0
   -3.8495    0.8445   -0.8677 H   0  0  0  0  0  0  0  0  0  0  0  0
   -4.0400    0.9790    0.8638 H   0  0  0  0  0  0  0  0  0  0  0  0
   -1.4077    0.2016    0.0316 C   0  0  0  0  0  0  0  0  0  0  0  0
   -2.7381   -1.2397   -0.7111 H   0  0  0  0  0  0  0  0  0  0  0  0
   -2.7640   -1.2904    1.0044 H   0  0  0  0  0  0  0  0  0  0  0  0
   -0.1483   -0.7044   -0.0049 C   0  0  0  0  0  0  0  0  0  0  0  0
   -1.3762    0.9393    0.9384 H   0  0  0  0  0  0  0  0  0  0  0  0
   -1.3824    0.8094   -0.8307 H   0  0  0  0  0  0  0  0  0  0  0  0
   -0.0728   -1.3418    0.8934 H   0  0  0  0  0  0  0  0  0  0  0  0
    0.7313   -0.1508   -0.0060 H   0  0  0  0  0  0  0  0  0  0  0  0
   -0.1458   -1.3691   -0.8687 H   0  0  0  0  0  0  0  0  0  0  0  0
  1  2  1  0  0  0  0
  1  5  1  0  0  0  0
  2  8  1  0  0  0  0
  3  1  1  0  0  0  0
  4  1  1  0  0  0  0
  6  2  1  0  0  0  0
  6 10  1  0  0  0  0
  7  2  1  0  0  0  0
  9  6  1  0  0  0  0
  9 12  1  0  0  0  0
 11  6  1  0  0  0  0
 13  9  1  0  0  0  0
 14  9  1  0  0  0  0
M  END
$$$$
