14
butane_opt
C  -3.927070   0.250099  -0.027238
C  -2.711421  -0.584537   0.106332
H  -4.893167  -0.349901   0.032431
H  -3.837655   0.857224  -0.969198
H  -3.953053   0.864193   0.769466
C  -1.422859   0.184633   0.035887
H  -2.636152  -1.200788  -0.662170
H  -2.760375  -1.236804   1.036480
C  -0.155394  -0.702012  -0.005278
H  -1.356546   0.826715   0.903013
H  -1.389484   0.819753  -0.889034
H  -0.150136  -1.067578   0.720483
H   0.701253  -0.179395   0.185722
H  -0.139987  -1.600393  -1.023082
