butane_opt
 OpenBabel08242015413D

 14 13  0  0  0  0  0  0  0  0999 V2000
   -3.9384    0.2951    0.0800 C   0  0  0  0  0  0  0  0  0  0  0  0
   -2.6829   -0.6215   -0.0055 C   0  0  0  0  0  0  0  0  0  0  0  0
   -4.8553   -0.3662    0.0590 H   0  0  0  0  0  0  0  0  0  0  0  0
   -4.0316    0.8765   -0.7703 H   0  0  0  0  0  0  0  0  0  0  0  0
   -3.9357    0.9253    0.9076 H   0  0  0  0  0  0  0  0  0  0  0  0
   -1.4004    0.1505   -0.0748 C   0  0  0  0  0  0  0  0  0  0  0  0
   -2.7431   -1.3692   -0.8791 H   0  0  0  0  0  0  0  0  0  0  0  0
   -2.6479   -1.2100    0.8739 H   0  0  0  0  0  0  0  0  0  0  0  0
   -0.1836   -0.6725    0.0898 C   0  0  0  0  0  0  0  0  0  0  0  0
   -1.4240    0.7450    0.7466 H   0  0  0  0  0  0  0  0  0  0  0  0
   -1.2870    0.7499   -0.9645 H   0  0  0  0  0  0  0  0  0  0  0  0
   -0.2640   -1.1793    0.9482 H   0  0  0  0  0  0  0  0  0  0  0  0
    0.7300   -0.0724    0.2124 H   0  0  0  0  0  0  0  0  0  0  0  0
   -0.1057   -1.3832   -0.7821 H   0  0  0  0  0  0  0  0  0  0  0  0
  1  5  1  0  0  0  0
  2  1  1  0  0  0  0
  2  8  1  0  0  0  0
  3  1  1  0  0  0  0
  4  1  1  0  0  0  0
  6  2  1  0  0  0  0
  6  9  1  0  0  0  0
  6 10  1  0  0  0  0
  7  2  1  0  0  0  0
  9 13  1  0  0  0  0
  9 12  1  0  0  0  0
 11  6  1  0  0  0  0
 14  9  1  0  0  0  0
M  END
$$$$
