14
butane_opt
C  -3.938357   0.295058   0.080002
C  -2.682890  -0.621523  -0.005503
H  -4.855335  -0.366191   0.058989
H  -4.031620   0.876499  -0.770252
H  -3.935749   0.925254   0.907621
C  -1.400405   0.150503  -0.074829
H  -2.743114  -1.369169  -0.879057
H  -2.647893  -1.210028   0.873854
C  -0.183609  -0.672506   0.089761
H  -1.423963   0.744994   0.746616
H  -1.287049   0.749890  -0.964544
H  -0.264007  -1.179262   0.948248
H   0.729978  -0.072392   0.212362
H  -0.105705  -1.383213  -0.782075
