butane_opt
 OpenBabel08242015413D

 14 13  0  0  0  0  0  0  0  0999 V2000
   -3.9393    0.2634   -0.0221 C   0  0  0  0  0  0  0  0  0  0  0  0
   -2.7017   -0.5982    0.0522 C   0  0  0  0  0  0  0  0  0  0  0  0
   -4.9352   -0.4425    0.2628 H   0  0  0  0  0  0  0  0  0  0  0  0
   -4.0305    1.0997   -1.0690 H   0  0  0  0  0  0  0  0  0  0  0  0
   -3.8393    0.6848    0.6886 H   0  0  0  0  0  0  0  0  0  0  0  0
   -1.4080    0.1884    0.0887 C   0  0  0  0  0  0  0  0  0  0  0  0
   -2.6921   -1.2697   -0.7677 H   0  0  0  0  0  0  0  0  0  0  0  0
   -2.8017   -1.2227    0.9300 H   0  0  0  0  0  0  0  0  0  0  0  0
   -0.1601   -0.7055   -0.0054 C   0  0  0  0  0  0  0  0  0  0  0  0
   -1.3088    0.9349    0.9694 H   0  0  0  0  0  0  0  0  0  0  0  0
   -1.4138    0.8416   -0.8337 H   0  0  0  0  0  0  0  0  0  0  0  0
   -0.0727   -1.2814    0.8563 H   0  0  0  0  0  0  0  0  0  0  0  0
    0.7479   -0.1416   -0.0065 H   0  0  0  0  0  0  0  0  0  0  0  0
   -0.1632   -1.4623   -0.9761 H   0  0  0  0  0  0  0  0  0  0  0  0
  1  2  1  0  0  0  0
  1  3  1  0  0  0  0
  1  5  1  0  0  0  0
  2  6  1  0  0  0  0
  2  8  1  0  0  0  0
  4  1  1  0  0  0  0
  6 10  1  0  0  0  0
  7  2  1  0  0  0  0
  9  6  1  0  0  0  0
  9 12  1  0  0  0  0
 11  6  1  0  0  0  0
 13  9  1  0  0  0  0
 14  9  1  0  0  0  0
M  END
$$$$
