14
butane_opt
C  -3.970629   0.285386  -0.047438
C  -2.705751  -0.632493   0.138527
H  -4.854565  -0.335561  -0.272681
H  -3.876437   0.803275  -0.909384
H  -4.136727   0.989452   0.833060
C  -1.371318   0.183603   0.072181
H  -2.686270  -1.250093  -0.722430
H  -2.687900  -1.323360   1.077732
C  -0.154204  -0.685106  -0.044156
H  -1.291461   0.800329   0.892594
H  -1.460519   0.785476  -0.781515
H  -0.145095  -1.230278   0.827890
H   0.729465  -0.114145  -0.020748
H  -0.182805  -1.416782  -0.920015
