14
butane_opt
C  -3.955023   0.251743   0.047004
C  -2.721459  -0.612594  -0.022367
H  -4.910839  -0.324567   0.084381
H  -4.110810   0.766190  -0.772352
H  -3.815375   0.994624   0.995686
C  -1.391745   0.224700  -0.020710
H  -2.728325  -1.311579  -0.884714
H  -2.667465  -1.192609   0.817618
C  -0.156528  -0.714642   0.076385
H  -1.371063   0.847419   0.806616
H  -1.367651   0.861777  -0.868984
H  -0.002836  -1.526934   1.103997
H   0.752754  -0.130925  -0.124301
H  -0.102114  -1.246956  -0.662362
