butane_opt
 OpenBabel08242015413D

 14 13  0  0  0  0  0  0  0  0999 V2000
   -3.9420    0.2595    0.0564 C   0  0  0  0  0  0  0  0  0  0  0  0
   -2.7046   -0.6030   -0.0091 C   0  0  0  0  0  0  0  0  0  0  0  0
   -4.8889   -0.3932    0.1278 H   0  0  0  0  0  0  0  0  0  0  0  0
   -3.9857    0.8825   -0.8659 H   0  0  0  0  0  0  0  0  0  0  0  0
   -3.8645    0.9048    0.9023 H   0  0  0  0  0  0  0  0  0  0  0  0
   -1.4010    0.1922   -0.0229 C   0  0  0  0  0  0  0  0  0  0  0  0
   -2.7785   -1.2890   -0.8777 H   0  0  0  0  0  0  0  0  0  0  0  0
   -2.6402   -1.2063    0.8576 H   0  0  0  0  0  0  0  0  0  0  0  0
   -0.1671   -0.7078    0.0628 C   0  0  0  0  0  0  0  0  0  0  0  0
   -1.4271    0.8995    0.8488 H   0  0  0  0  0  0  0  0  0  0  0  0
   -1.3665    0.8557   -0.9157 H   0  0  0  0  0  0  0  0  0  0  0  0
   -0.1476   -1.4020    0.9942 H   0  0  0  0  0  0  0  0  0  0  0  0
    0.7502   -0.0913    0.0756 H   0  0  0  0  0  0  0  0  0  0  0  0
   -0.0948   -1.3289   -0.7535 H   0  0  0  0  0  0  0  0  0  0  0  0
  1  3  1  0  0  0  0
  1  5  1  0  0  0  0
  2  1  1  0  0  0  0
  2  8  1  0  0  0  0
  4  1  1  0  0  0  0
  6  2  1  0  0  0  0
  6  9  1  0  0  0  0
  6 10  1  0  0  0  0
  7  2  1  0  0  0  0
  9 13  1  0  0  0  0
  9 12  1  0  0  0  0
 11  6  1  0  0  0  0
 14  9  1  0  0  0  0
M  END
$$$$
