14
butane_opt
C  -3.923358   0.256625  -0.031738
C  -2.693908  -0.601600   0.059716
H  -4.897588  -0.361227   0.004563
H  -3.921595   0.887543  -0.904281
H  -3.961092   0.900173   0.810201
C  -1.399622   0.197388   0.073779
H  -2.730534  -1.263448  -0.751313
H  -2.708078  -1.245503   0.992459
C  -0.182813  -0.696832  -0.000085
H  -1.368742   0.914881   0.987577
H  -1.453362   0.725048  -0.754143
H  -0.010778  -1.465694   0.951475
H   0.694213  -0.113641  -0.301315
H  -0.266188  -1.317727  -0.818848
