butane_opt
 OpenBabel08242015413D

 14 13  0  0  0  0  0  0  0  0999 V2000
   -3.9234    0.2566   -0.0317 C   0  0  0  0  0  0  0  0  0  0  0  0
   -2.6939   -0.6016    0.0597 C   0  0  0  0  0  0  0  0  0  0  0  0
   -4.8976   -0.3612    0.0046 H   0  0  0  0  0  0  0  0  0  0  0  0
   -3.9216    0.8875   -0.9043 H   0  0  0  0  0  0  0  0  0  0  0  0
   -3.9611    0.9002    0.8102 H   0  0  0  0  0  0  0  0  0  0  0  0
   -1.3996    0.1974    0.0738 C   0  0  0  0  0  0  0  0  0  0  0  0
   -2.7305   -1.2634   -0.7513 H   0  0  0  0  0  0  0  0  0  0  0  0
   -2.7081   -1.2455    0.9925 H   0  0  0  0  0  0  0  0  0  0  0  0
   -0.1828   -0.6968   -0.0001 C   0  0  0  0  0  0  0  0  0  0  0  0
   -1.3687    0.9149    0.9876 H   0  0  0  0  0  0  0  0  0  0  0  0
   -1.4534    0.7250   -0.7541 H   0  0  0  0  0  0  0  0  0  0  0  0
   -0.0108   -1.4657    0.9515 H   0  0  0  0  0  0  0  0  0  0  0  0
    0.6942   -0.1136   -0.3013 H   0  0  0  0  0  0  0  0  0  0  0  0
   -0.2662   -1.3177   -0.8188 H   0  0  0  0  0  0  0  0  0  0  0  0
  1  3  1  0  0  0  0
  1  2  1  0  0  0  0
  1  5  1  0  0  0  0
  2  6  1  0  0  0  0
  2  8  1  0  0  0  0
  4  1  1  0  0  0  0
  6 10  1  0  0  0  0
  7  2  1  0  0  0  0
  9  6  1  0  0  0  0
  9 12  1  0  0  0  0
 11  6  1  0  0  0  0
 13  9  1  0  0  0  0
 14  9  1  0  0  0  0
M  END
$$$$
