butane_opt
 OpenBabel08242015413D

 14 13  0  0  0  0  0  0  0  0999 V2000
   -3.9665    0.2523    0.0201 C   0  0  0  0  0  0  0  0  0  0  0  0
   -2.7131   -0.5976    0.0230 C   0  0  0  0  0  0  0  0  0  0  0  0
   -4.9171   -0.3917   -0.0735 H   0  0  0  0  0  0  0  0  0  0  0  0
   -3.8680    0.7058   -0.7817 H   0  0  0  0  0  0  0  0  0  0  0  0
   -3.9197    1.0089    0.9657 H   0  0  0  0  0  0  0  0  0  0  0  0
   -1.3881    0.2092    0.0076 C   0  0  0  0  0  0  0  0  0  0  0  0
   -2.7667   -1.1808   -0.7670 H   0  0  0  0  0  0  0  0  0  0  0  0
   -2.7431   -1.2149    0.9088 H   0  0  0  0  0  0  0  0  0  0  0  0
   -0.1434   -0.7248    0.0450 C   0  0  0  0  0  0  0  0  0  0  0  0
   -1.4501    0.9266    0.8627 H   0  0  0  0  0  0  0  0  0  0  0  0
   -1.3532    0.8464   -0.8564 H   0  0  0  0  0  0  0  0  0  0  0  0
   -0.0447   -1.4475    1.0000 H   0  0  0  0  0  0  0  0  0  0  0  0
    0.7239   -0.1644   -0.1897 H   0  0  0  0  0  0  0  0  0  0  0  0
   -0.1458   -1.2490   -0.7632 H   0  0  0  0  0  0  0  0  0  0  0  0
  1  2  1  0  0  0  0
  1  5  1  0  0  0  0
  2  8  1  0  0  0  0
  3  1  1  0  0  0  0
  4  1  1  0  0  0  0
  6  2  1  0  0  0  0
  6  9  1  0  0  0  0
  6 10  1  0  0  0  0
  7  2  1  0  0  0  0
  9 12  1  0  0  0  0
 11  6  1  0  0  0  0
 13  9  1  0  0  0  0
 14  9  1  0  0  0  0
M  END
$$$$
