butane_opt
 OpenBabel08242015413D

 14 13  0  0  0  0  0  0  0  0999 V2000
   -3.9578    0.2487   -0.0392 C   0  0  0  0  0  0  0  0  0  0  0  0
   -2.7064   -0.6052    0.0894 C   0  0  0  0  0  0  0  0  0  0  0  0
   -4.8856   -0.3507    0.0296 H   0  0  0  0  0  0  0  0  0  0  0  0
   -3.9401    0.9275   -0.9906 H   0  0  0  0  0  0  0  0  0  0  0  0
   -4.0985    0.8768    0.7580 H   0  0  0  0  0  0  0  0  0  0  0  0
   -1.4004    0.2123    0.0709 C   0  0  0  0  0  0  0  0  0  0  0  0
   -2.6881   -1.3118   -0.7433 H   0  0  0  0  0  0  0  0  0  0  0  0
   -2.7001   -1.2634    1.0269 H   0  0  0  0  0  0  0  0  0  0  0  0
   -0.1489   -0.7032   -0.0279 C   0  0  0  0  0  0  0  0  0  0  0  0
   -1.3148    1.0102    1.0479 H   0  0  0  0  0  0  0  0  0  0  0  0
   -1.3843    0.7046   -0.7290 H   0  0  0  0  0  0  0  0  0  0  0  0
    0.0276   -1.4324    0.9579 H   0  0  0  0  0  0  0  0  0  0  0  0
    0.7119   -0.1171   -0.1722 H   0  0  0  0  0  0  0  0  0  0  0  0
   -0.1789   -1.3514   -0.8656 H   0  0  0  0  0  0  0  0  0  0  0  0
  1  3  1  0  0  0  0
  1  2  1  0  0  0  0
  1  5  1  0  0  0  0
  2  8  1  0  0  0  0
  4  1  1  0  0  0  0
  6  2  1  0  0  0  0
  6 10  1  0  0  0  0
  7  2  1  0  0  0  0
  9  6  1  0  0  0  0
  9 12  1  0  0  0  0
 11  6  1  0  0  0  0
 13  9  1  0  0  0  0
 14  9  1  0  0  0  0
M  END
$$$$
