14
butane_opt
C  -3.959950   0.280679   0.034821
C  -2.717087  -0.632057   0.029408
H  -4.830927  -0.264288  -0.105286
H  -3.986330   0.752847  -0.766393
H  -4.061126   1.119593   1.056083
C  -1.388584   0.149649  -0.025660
H  -2.749901  -1.313929  -0.861202
H  -2.641039  -1.224518   0.913388
C  -0.153680  -0.680226   0.043119
H  -1.325085   0.821428   0.852897
H  -1.383604   0.863364  -0.956579
H  -0.161421  -1.419876   1.036775
H   0.816601   0.003778   0.053737
H  -0.082663  -1.221918  -0.733946
