14
butane_opt
C  -3.957789   0.248692  -0.039219
C  -2.706378  -0.605215   0.089395
H  -4.885572  -0.350709   0.029575
H  -3.940060   0.927542  -0.990624
H  -4.098451   0.876763   0.757999
C  -1.400374   0.212265   0.070918
H  -2.688080  -1.311814  -0.743289
H  -2.700088  -1.263360   1.026907
C  -0.148925  -0.703157  -0.027869
H  -1.314841   1.010204   1.047866
H  -1.384305   0.704584  -0.728974
H   0.027609  -1.432393   0.957912
H   0.711927  -0.117071  -0.172221
H  -0.178948  -1.351418  -0.865635
