butane_opt
 OpenBabel08242015413D

 14 13  0  0  0  0  0  0  0  0999 V2000
   -3.9706    0.2854   -0.0474 C   0  0  0  0  0  0  0  0  0  0  0  0
   -2.7058   -0.6325    0.1385 C   0  0  0  0  0  0  0  0  0  0  0  0
   -4.8546   -0.3356   -0.2727 H   0  0  0  0  0  0  0  0  0  0  0  0
   -3.8764    0.8033   -0.9094 H   0  0  0  0  0  0  0  0  0  0  0  0
   -4.1367    0.9895    0.8331 H   0  0  0  0  0  0  0  0  0  0  0  0
   -1.3713    0.1836    0.0722 C   0  0  0  0  0  0  0  0  0  0  0  0
   -2.6863   -1.2501   -0.7224 H   0  0  0  0  0  0  0  0  0  0  0  0
   -2.6879   -1.3234    1.0777 H   0  0  0  0  0  0  0  0  0  0  0  0
   -0.1542   -0.6851   -0.0442 C   0  0  0  0  0  0  0  0  0  0  0  0
   -1.2915    0.8003    0.8926 H   0  0  0  0  0  0  0  0  0  0  0  0
   -1.4605    0.7855   -0.7815 H   0  0  0  0  0  0  0  0  0  0  0  0
   -0.1451   -1.2303    0.8279 H   0  0  0  0  0  0  0  0  0  0  0  0
    0.7295   -0.1141   -0.0207 H   0  0  0  0  0  0  0  0  0  0  0  0
   -0.1828   -1.4168   -0.9200 H   0  0  0  0  0  0  0  0  0  0  0  0
  1  2  1  0  0  0  0
  1  5  1  0  0  0  0
  2  8  1  0  0  0  0
  3  1  1  0  0  0  0
  4  1  1  0  0  0  0
  6  2  1  0  0  0  0
  6 10  1  0  0  0  0
  7  2  1  0  0  0  0
  9 13  1  0  0  0  0
  9  6  1  0  0  0  0
  9 12  1  0  0  0  0
 11  6  1  0  0  0  0
 14  9  1  0  0  0  0
M  END
$$$$
