butane_opt
 OpenBabel08242015413D

 14 13  0  0  0  0  0  0  0  0999 V2000
   -3.9597    0.2626    0.0456 C   0  0  0  0  0  0  0  0  0  0  0  0
   -2.7034   -0.6128   -0.0010 C   0  0  0  0  0  0  0  0  0  0  0  0
   -4.8840   -0.3498    0.2218 H   0  0  0  0  0  0  0  0  0  0  0  0
   -4.0417    0.8841   -0.8670 H   0  0  0  0  0  0  0  0  0  0  0  0
   -3.8462    0.7935    0.8795 H   0  0  0  0  0  0  0  0  0  0  0  0
   -1.3880    0.2301   -0.0227 C   0  0  0  0  0  0  0  0  0  0  0  0
   -2.7883   -1.3171   -0.9138 H   0  0  0  0  0  0  0  0  0  0  0  0
   -2.7704   -1.2049    0.8611 H   0  0  0  0  0  0  0  0  0  0  0  0
   -0.1570   -0.7197    0.0523 C   0  0  0  0  0  0  0  0  0  0  0  0
   -1.4035    0.9248    0.8526 H   0  0  0  0  0  0  0  0  0  0  0  0
   -1.3487    0.7530   -0.8404 H   0  0  0  0  0  0  0  0  0  0  0  0
   -0.1728   -1.3712    1.0061 H   0  0  0  0  0  0  0  0  0  0  0  0
    0.7011   -0.1720    0.0446 H   0  0  0  0  0  0  0  0  0  0  0  0
    0.0322   -1.3299   -0.7033 H   0  0  0  0  0  0  0  0  0  0  0  0
  1  3  1  0  0  0  0
  1  5  1  0  0  0  0
  2  1  1  0  0  0  0
  2  8  1  0  0  0  0
  4  1  1  0  0  0  0
  6  2  1  0  0  0  0
  6  9  1  0  0  0  0
  6 10  1  0  0  0  0
  7  2  1  0  0  0  0
  9 12  1  0  0  0  0
 11  6  1  0  0  0  0
 13  9  1  0  0  0  0
 14  9  1  0  0  0  0
M  END
$$$$
