butane_opt
 OpenBabel08242015413D

 14 13  0  0  0  0  0  0  0  0999 V2000
   -3.9461    0.2877    0.0396 C   0  0  0  0  0  0  0  0  0  0  0  0
   -2.7025   -0.6536    0.0405 C   0  0  0  0  0  0  0  0  0  0  0  0
   -4.8926   -0.2991   -0.1267 H   0  0  0  0  0  0  0  0  0  0  0  0
   -3.9053    0.7865   -0.7444 H   0  0  0  0  0  0  0  0  0  0  0  0
   -4.1032    1.0675    0.9788 H   0  0  0  0  0  0  0  0  0  0  0  0
   -1.3819    0.1742   -0.0328 C   0  0  0  0  0  0  0  0  0  0  0  0
   -2.7317   -1.2947   -0.8046 H   0  0  0  0  0  0  0  0  0  0  0  0
   -2.6905   -1.2260    0.8716 H   0  0  0  0  0  0  0  0  0  0  0  0
   -0.1704   -0.6779    0.0547 C   0  0  0  0  0  0  0  0  0  0  0  0
   -1.3845    0.8659    0.7904 H   0  0  0  0  0  0  0  0  0  0  0  0
   -1.3560    0.8405   -0.9226 H   0  0  0  0  0  0  0  0  0  0  0  0
   -0.1835   -1.3417    0.9751 H   0  0  0  0  0  0  0  0  0  0  0  0
    0.7287   -0.0823   -0.0085 H   0  0  0  0  0  0  0  0  0  0  0  0
   -0.0974   -1.3684   -0.7834 H   0  0  0  0  0  0  0  0  0  0  0  0
  1  2  1  0  0  0  0
  1  5  1  0  0  0  0
  2  8  1  0  0  0  0
  3  1  1  0  0  0  0
  4  1  1  0  0  0  0
  6  2  1  0  0  0  0
  6  9  1  0  0  0  0
  6 10  1  0  0  0  0
  7  2  1  0  0  0  0
  9 12  1  0  0  0  0
 11  6  1  0  0  0  0
 13  9  1  0  0  0  0
 14  9  1  0  0  0  0
M  END
$$$$
