butane_opt
 OpenBabel08242015413D

 14 13  0  0  0  0  0  0  0  0999 V2000
   -3.9327    0.2420   -0.0180 C   0  0  0  0  0  0  0  0  0  0  0  0
   -2.7066   -0.5799    0.1035 C   0  0  0  0  0  0  0  0  0  0  0  0
   -4.9022   -0.3970    0.0464 H   0  0  0  0  0  0  0  0  0  0  0  0
   -3.7891    0.9883   -1.0211 H   0  0  0  0  0  0  0  0  0  0  0  0
   -3.9262    0.7572    0.7940 H   0  0  0  0  0  0  0  0  0  0  0  0
   -1.4324    0.1905    0.0340 C   0  0  0  0  0  0  0  0  0  0  0  0
   -2.6720   -1.1797   -0.7128 H   0  0  0  0  0  0  0  0  0  0  0  0
   -2.7421   -1.1995    1.0232 H   0  0  0  0  0  0  0  0  0  0  0  0
   -0.1585   -0.7128   -0.0115 C   0  0  0  0  0  0  0  0  0  0  0  0
   -1.3460    0.9025    0.9080 H   0  0  0  0  0  0  0  0  0  0  0  0
   -1.3865    0.8042   -0.8699 H   0  0  0  0  0  0  0  0  0  0  0  0
   -0.1997   -1.0925    0.7405 H   0  0  0  0  0  0  0  0  0  0  0  0
    0.7019   -0.1192    0.2183 H   0  0  0  0  0  0  0  0  0  0  0  0
    0.0051   -1.6362   -1.0230 H   0  0  0  0  0  0  0  0  0  0  0  0
  1  3  1  0  0  0  0
  1  2  1  0  0  0  0
  1  5  1  0  0  0  0
  2  8  1  0  0  0  0
  4  1  1  0  0  0  0
  6  2  1  0  0  0  0
  6 10  1  0  0  0  0
  7  2  1  0  0  0  0
  9  6  1  0  0  0  0
  9 13  1  0  0  0  0
  9 12  1  0  0  0  0
 11  6  1  0  0  0  0
 14  9  1  0  0  0  0
M  END
$$$$
