14
butane_opt
C  -3.941237   0.266145  -0.021134
C  -2.707929  -0.624246   0.085727
H  -4.921996  -0.357224   0.109654
H  -3.985809   1.003672  -1.009653
H  -3.997100   0.790165   0.745875
C  -1.405535   0.212261   0.052062
H  -2.692250  -1.258134  -0.751762
H  -2.805967  -1.330414   1.029246
C  -0.137657  -0.698916  -0.008924
H  -1.386737   0.814415   0.884562
H  -1.494118   0.833062  -0.847852
H  -0.065951  -1.101137   0.763502
H   0.752216  -0.113650   0.212883
H  -0.117222  -1.617426  -1.011533
