butane_opt
 OpenBabel08242015413D

 14 13  0  0  0  0  0  0  0  0999 V2000
   -3.9187    0.2307   -0.0120 C   0  0  0  0  0  0  0  0  0  0  0  0
   -2.6913   -0.5855    0.0604 C   0  0  0  0  0  0  0  0  0  0  0  0
   -4.8301   -0.3471    0.0347 H   0  0  0  0  0  0  0  0  0  0  0  0
   -3.9065    0.9527   -0.9775 H   0  0  0  0  0  0  0  0  0  0  0  0
   -3.9829    0.8388    0.7921 H   0  0  0  0  0  0  0  0  0  0  0  0
   -1.4298    0.2108    0.0689 C   0  0  0  0  0  0  0  0  0  0  0  0
   -2.7136   -1.2717   -0.8232 H   0  0  0  0  0  0  0  0  0  0  0  0
   -2.7606   -1.1990    0.9169 H   0  0  0  0  0  0  0  0  0  0  0  0
   -0.1709   -0.7209   -0.0114 C   0  0  0  0  0  0  0  0  0  0  0  0
   -1.3323    0.9246    0.9900 H   0  0  0  0  0  0  0  0  0  0  0  0
   -1.4900    0.7653   -0.7922 H   0  0  0  0  0  0  0  0  0  0  0  0
    0.0256   -1.3912    0.9216 H   0  0  0  0  0  0  0  0  0  0  0  0
    0.7148   -0.1318   -0.1531 H   0  0  0  0  0  0  0  0  0  0  0  0
   -0.2097   -1.2260   -0.7254 H   0  0  0  0  0  0  0  0  0  0  0  0
  1  3  1  0  0  0  0
  1  2  1  0  0  0  0
  1  5  1  0  0  0  0
  2  6  1  0  0  0  0
  2  8  1  0  0  0  0
  4  1  1  0  0  0  0
  6 10  1  0  0  0  0
  7  2  1  0  0  0  0
  9  6  1  0  0  0  0
  9 12  1  0  0  0  0
 11  6  1  0  0  0  0
 13  9  1  0  0  0  0
 14  9  1  0  0  0  0
M  END
$$$$
