butane_opt
 OpenBabel08242015413D

 14 13  0  0  0  0  0  0  0  0999 V2000
   -3.9243    0.2866    0.0729 C   0  0  0  0  0  0  0  0  0  0  0  0
   -2.6861   -0.6427   -0.0391 C   0  0  0  0  0  0  0  0  0  0  0  0
   -4.8731   -0.3225    0.3083 H   0  0  0  0  0  0  0  0  0  0  0  0
   -4.1150    0.9732   -0.8515 H   0  0  0  0  0  0  0  0  0  0  0  0
   -3.8800    0.8903    0.9151 H   0  0  0  0  0  0  0  0  0  0  0  0
   -1.4129    0.1621   -0.0446 C   0  0  0  0  0  0  0  0  0  0  0  0
   -2.7009   -1.4009   -0.9679 H   0  0  0  0  0  0  0  0  0  0  0  0
   -2.5627   -1.2509    0.7925 H   0  0  0  0  0  0  0  0  0  0  0  0
   -0.1842   -0.6747    0.0839 C   0  0  0  0  0  0  0  0  0  0  0  0
   -1.3704    0.8588    0.8574 H   0  0  0  0  0  0  0  0  0  0  0  0
   -1.3983    0.8181   -0.9669 H   0  0  0  0  0  0  0  0  0  0  0  0
   -0.2809   -1.2978    1.0495 H   0  0  0  0  0  0  0  0  0  0  0  0
    0.7108   -0.0485    0.1167 H   0  0  0  0  0  0  0  0  0  0  0  0
   -0.0649   -1.2639   -0.6878 H   0  0  0  0  0  0  0  0  0  0  0  0
  1  3  1  0  0  0  0
  1  5  1  0  0  0  0
  2  1  1  0  0  0  0
  2  8  1  0  0  0  0
  4  1  1  0  0  0  0
  6  2  1  0  0  0  0
  6  9  1  0  0  0  0
  6 10  1  0  0  0  0
  7  2  1  0  0  0  0
  9 13  1  0  0  0  0
  9 12  1  0  0  0  0
 11  6  1  0  0  0  0
 14  9  1  0  0  0  0
M  END
$$$$
