butane_opt
 OpenBabel08242015413D

 14 13  0  0  0  0  0  0  0  0999 V2000
   -3.9412    0.2661   -0.0211 C   0  0  0  0  0  0  0  0  0  0  0  0
   -2.7079   -0.6242    0.0857 C   0  0  0  0  0  0  0  0  0  0  0  0
   -4.9220   -0.3572    0.1097 H   0  0  0  0  0  0  0  0  0  0  0  0
   -3.9858    1.0037   -1.0097 H   0  0  0  0  0  0  0  0  0  0  0  0
   -3.9971    0.7902    0.7459 H   0  0  0  0  0  0  0  0  0  0  0  0
   -1.4055    0.2123    0.0521 C   0  0  0  0  0  0  0  0  0  0  0  0
   -2.6923   -1.2581   -0.7518 H   0  0  0  0  0  0  0  0  0  0  0  0
   -2.8060   -1.3304    1.0292 H   0  0  0  0  0  0  0  0  0  0  0  0
   -0.1377   -0.6989   -0.0089 C   0  0  0  0  0  0  0  0  0  0  0  0
   -1.3867    0.8144    0.8846 H   0  0  0  0  0  0  0  0  0  0  0  0
   -1.4941    0.8331   -0.8479 H   0  0  0  0  0  0  0  0  0  0  0  0
   -0.0660   -1.1011    0.7635 H   0  0  0  0  0  0  0  0  0  0  0  0
    0.7522   -0.1137    0.2129 H   0  0  0  0  0  0  0  0  0  0  0  0
   -0.1172   -1.6174   -1.0115 H   0  0  0  0  0  0  0  0  0  0  0  0
  1  2  1  0  0  0  0
  1  3  1  0  0  0  0
  1  5  1  0  0  0  0
  2  8  1  0  0  0  0
  4  1  1  0  0  0  0
  6  2  1  0  0  0  0
  6 10  1  0  0  0  0
  7  2  1  0  0  0  0
  9  6  1  0  0  0  0
  9 13  1  0  0  0  0
  9 12  1  0  0  0  0
 11  6  1  0  0  0  0
 14  9  1  0  0  0  0
M  END
$$$$
