butane_opt
 OpenBabel08242015413D

 14 13  0  0  0  0  0  0  0  0999 V2000
   -3.9768    0.2824    0.0513 C   0  0  0  0  0  0  0  0  0  0  0  0
   -2.6806   -0.6652    0.0007 C   0  0  0  0  0  0  0  0  0  0  0  0
   -4.8350   -0.2225    0.2886 H   0  0  0  0  0  0  0  0  0  0  0  0
   -4.1217    1.0623   -0.9382 H   0  0  0  0  0  0  0  0  0  0  0  0
   -3.9253    0.8260    0.8080 H   0  0  0  0  0  0  0  0  0  0  0  0
   -1.3815    0.1861   -0.0171 C   0  0  0  0  0  0  0  0  0  0  0  0
   -2.7751   -1.4163   -0.9184 H   0  0  0  0  0  0  0  0  0  0  0  0
   -2.6734   -1.1618    0.8127 H   0  0  0  0  0  0  0  0  0  0  0  0
   -0.1626   -0.6810    0.0593 C   0  0  0  0  0  0  0  0  0  0  0  0
   -1.4483    0.8494    0.8575 H   0  0  0  0  0  0  0  0  0  0  0  0
   -1.3146    0.7846   -0.9022 H   0  0  0  0  0  0  0  0  0  0  0  0
   -0.1842   -1.2809    0.9465 H   0  0  0  0  0  0  0  0  0  0  0  0
    0.7720   -0.0763    0.1486 H   0  0  0  0  0  0  0  0  0  0  0  0
   -0.1120   -1.2895   -0.8082 H   0  0  0  0  0  0  0  0  0  0  0  0
  1  3  1  0  0  0  0
  1  5  1  0  0  0  0
  2  1  1  0  0  0  0
  2  8  1  0  0  0  0
  4  1  1  0  0  0  0
  6  2  1  0  0  0  0
  6  9  1  0  0  0  0
  6 10  1  0  0  0  0
  7  2  1  0  0  0  0
  9 13  1  0  0  0  0
  9 12  1  0  0  0  0
 11  6  1  0  0  0  0
 14  9  1  0  0  0  0
M  END
$$$$
