14
butane_opt
C  -3.924258   0.286607   0.072871
C  -2.686109  -0.642699  -0.039122
H  -4.873119  -0.322543   0.308253
H  -4.114957   0.973227  -0.851549
H  -3.880046   0.890297   0.915068
C  -1.412882   0.162126  -0.044557
H  -2.700852  -1.400889  -0.967945
H  -2.562744  -1.250942   0.792523
C  -0.184156  -0.674704   0.083862
H  -1.370351   0.858807   0.857392
H  -1.398343   0.818054  -0.966909
H  -0.280927  -1.297765   1.049521
H   0.710759  -0.048518   0.116658
H  -0.064946  -1.263886  -0.687783
