butane_opt
 OpenBabel08242015413D

 14 13  0  0  0  0  0  0  0  0999 V2000
   -3.9489    0.2555    0.0051 C   0  0  0  0  0  0  0  0  0  0  0  0
   -2.7069   -0.6049    0.0556 C   0  0  0  0  0  0  0  0  0  0  0  0
   -4.8622   -0.3256   -0.0348 H   0  0  0  0  0  0  0  0  0  0  0  0
   -3.9125    0.8477   -0.8774 H   0  0  0  0  0  0  0  0  0  0  0  0
   -4.0173    0.9101    0.8359 H   0  0  0  0  0  0  0  0  0  0  0  0
   -1.3981    0.2034    0.0227 C   0  0  0  0  0  0  0  0  0  0  0  0
   -2.7417   -1.3013   -0.8022 H   0  0  0  0  0  0  0  0  0  0  0  0
   -2.7719   -1.2485    0.9556 H   0  0  0  0  0  0  0  0  0  0  0  0
   -0.1597   -0.7057    0.0166 C   0  0  0  0  0  0  0  0  0  0  0  0
   -1.3582    0.9454    0.9388 H   0  0  0  0  0  0  0  0  0  0  0  0
   -1.3941    0.7911   -0.8133 H   0  0  0  0  0  0  0  0  0  0  0  0
   -0.0004   -1.3988    0.9644 H   0  0  0  0  0  0  0  0  0  0  0  0
    0.7418   -0.1472   -0.1025 H   0  0  0  0  0  0  0  0  0  0  0  0
   -0.1479   -1.3244   -0.8167 H   0  0  0  0  0  0  0  0  0  0  0  0
  1  2  1  0  0  0  0
  1  5  1  0  0  0  0
  2  8  1  0  0  0  0
  3  1  1  0  0  0  0
  4  1  1  0  0  0  0
  6  2  1  0  0  0  0
  6 10  1  0  0  0  0
  7  2  1  0  0  0  0
  9  6  1  0  0  0  0
  9 12  1  0  0  0  0
 11  6  1  0  0  0  0
 13  9  1  0  0  0  0
 14  9  1  0  0  0  0
M  END
$$$$
