butane_opt
 OpenBabel08242015413D

 14 13  0  0  0  0  0  0  0  0999 V2000
   -3.9186    0.2505    0.0273 C   0  0  0  0  0  0  0  0  0  0  0  0
   -2.7146   -0.6148    0.0615 C   0  0  0  0  0  0  0  0  0  0  0  0
   -4.8292   -0.3917   -0.0925 H   0  0  0  0  0  0  0  0  0  0  0  0
   -3.8621    0.8415   -0.8802 H   0  0  0  0  0  0  0  0  0  0  0  0
   -3.9925    0.9852    0.9219 H   0  0  0  0  0  0  0  0  0  0  0  0
   -1.4247    0.2182   -0.0173 C   0  0  0  0  0  0  0  0  0  0  0  0
   -2.6864   -1.3107   -0.8305 H   0  0  0  0  0  0  0  0  0  0  0  0
   -2.6740   -1.1997    0.9334 H   0  0  0  0  0  0  0  0  0  0  0  0
   -0.1538   -0.7069    0.0407 C   0  0  0  0  0  0  0  0  0  0  0  0
   -1.4047    0.8590    0.8225 H   0  0  0  0  0  0  0  0  0  0  0  0
   -1.4440    0.8279   -0.8748 H   0  0  0  0  0  0  0  0  0  0  0  0
   -0.1561   -1.2984    0.9019 H   0  0  0  0  0  0  0  0  0  0  0  0
    0.7115   -0.1802    0.0612 H   0  0  0  0  0  0  0  0  0  0  0  0
   -0.1272   -1.3802   -0.8656 H   0  0  0  0  0  0  0  0  0  0  0  0
  1  2  1  0  0  0  0
  1  5  1  0  0  0  0
  2  8  1  0  0  0  0
  3  1  1  0  0  0  0
  4  1  1  0  0  0  0
  6  9  1  0  0  0  0
  6  2  1  0  0  0  0
  6 10  1  0  0  0  0
  7  2  1  0  0  0  0
  9 13  1  0  0  0  0
  9 12  1  0  0  0  0
 11  6  1  0  0  0  0
 14  9  1  0  0  0  0
M  END
$$$$
