14
butane_opt
C  -3.918631   0.250526   0.027346
C  -2.714649  -0.614845   0.061533
H  -4.829177  -0.391740  -0.092522
H  -3.862060   0.841491  -0.880158
H  -3.992529   0.985186   0.921898
C  -1.424727   0.218217  -0.017273
H  -2.686426  -1.310683  -0.830521
H  -2.673983  -1.199713   0.933447
C  -0.153822  -0.706870   0.040720
H  -1.404729   0.859014   0.822483
H  -1.444036   0.827922  -0.874799
H  -0.156121  -1.298412   0.901929
H   0.711470  -0.180184   0.061229
H  -0.127194  -1.380201  -0.865641
