butane_opt
 OpenBabel08242015413D

 14 13  0  0  0  0  0  0  0  0999 V2000
   -3.9247    0.2507   -0.0225 C   0  0  0  0  0  0  0  0  0  0  0  0
   -2.7112   -0.5996    0.0772 C   0  0  0  0  0  0  0  0  0  0  0  0
   -4.8092   -0.3839   -0.1441 H   0  0  0  0  0  0  0  0  0  0  0  0
   -3.7945    0.7908   -0.8870 H   0  0  0  0  0  0  0  0  0  0  0  0
   -3.9744    1.0039    0.8733 H   0  0  0  0  0  0  0  0  0  0  0  0
   -1.4309    0.2161    0.0566 C   0  0  0  0  0  0  0  0  0  0  0  0
   -2.6995   -1.2409   -0.7163 H   0  0  0  0  0  0  0  0  0  0  0  0
   -2.7911   -1.2706    1.0353 H   0  0  0  0  0  0  0  0  0  0  0  0
   -0.1565   -0.7186   -0.0121 C   0  0  0  0  0  0  0  0  0  0  0  0
   -1.2853    0.8775    0.9439 H   0  0  0  0  0  0  0  0  0  0  0  0
   -1.5218    0.7833   -0.7894 H   0  0  0  0  0  0  0  0  0  0  0  0
   -0.1028   -1.3753    0.9349 H   0  0  0  0  0  0  0  0  0  0  0  0
    0.7810   -0.1049   -0.1806 H   0  0  0  0  0  0  0  0  0  0  0  0
   -0.1513   -1.3243   -0.8080 H   0  0  0  0  0  0  0  0  0  0  0  0
  1  2  1  0  0  0  0
  1  5  1  0  0  0  0
  2  8  1  0  0  0  0
  3  1  1  0  0  0  0
  4  1  1  0  0  0  0
  6  2  1  0  0  0  0
  6 10  1  0  0  0  0
  7  2  1  0  0  0  0
  9  6  1  0  0  0  0
  9 12  1  0  0  0  0
 11  6  1  0  0  0  0
 13  9  1  0  0  0  0
 14  9  1  0  0  0  0
M  END
$$$$
