14
butane_opt
C  -3.953504   0.260590  -0.030877
C  -2.724128  -0.613580   0.071458
H  -4.851305  -0.346252   0.107344
H  -3.936022   0.924493  -0.928881
H  -3.977788   0.887656   0.793321
C  -1.392448   0.211195   0.063000
H  -2.737722  -1.334152  -0.745647
H  -2.803779  -1.252773   0.985588
C  -0.144469  -0.707163  -0.001663
H  -1.449377   0.928436   0.937033
H  -1.370075   0.826765  -0.826121
H   0.027450  -1.356718   0.882847
H   0.812600  -0.104328  -0.105711
H  -0.178177  -1.443025  -0.890694
