14
butane_opt
C  -3.966197   0.281416   0.060583
C  -2.698870  -0.633335   0.023474
H  -4.824325  -0.258741  -0.180919
H  -4.022154   0.677318  -0.735718
H  -4.011704   1.169605   1.075966
C  -1.404339   0.155760  -0.061597
H  -2.778344  -1.317459  -0.828836
H  -2.627560  -1.248765   0.833367
C  -0.138063  -0.674156   0.073169
H  -1.339713   0.773421   0.757191
H  -1.370254   0.812553  -0.991350
H  -0.257361  -1.312430   1.012961
H   0.789514  -0.079594   0.073706
H  -0.097745  -1.232838  -0.701453
