14
butane_opt
C  -3.938428   0.274150  -0.009269
C  -2.688453  -0.627309   0.074514
H  -4.806168  -0.303450   0.055587
H  -3.964643   0.884508  -0.916827
H  -3.987461   0.934530   0.827812
C  -1.411883   0.164125   0.029506
H  -2.677139  -1.279070  -0.729875
H  -2.758284  -1.256091   0.966499
C  -0.165268  -0.679991   0.009172
H  -1.397072   0.834590   0.871607
H  -1.411770   0.840491  -0.898233
H  -0.195759  -1.160498   0.831560
H   0.757779  -0.089200   0.109709
H  -0.143485  -1.446935  -0.932914
