14
butane_opt
C  -3.924711   0.250686  -0.022482
C  -2.711151  -0.599581   0.077204
H  -4.809191  -0.383893  -0.144061
H  -3.794522   0.790788  -0.887044
H  -3.974377   1.003931   0.873307
C  -1.430922   0.216110   0.056556
H  -2.699461  -1.240876  -0.716348
H  -2.791105  -1.270592   1.035341
C  -0.156507  -0.718629  -0.012057
H  -1.285349   0.877526   0.943922
H  -1.521836   0.783285  -0.789362
H  -0.102756  -1.375339   0.934862
H   0.780988  -0.104919  -0.180584
H  -0.151319  -1.324279  -0.808016
