14
butane_opt
C  -3.945986   0.252990   0.011840
C  -2.697426  -0.618717   0.063637
H  -4.812482  -0.331721  -0.221752
H  -3.885343   0.665713  -0.742547
H  -4.073681   1.100496   1.035217
C  -1.418451   0.214119   0.004659
H  -2.654633  -1.247308  -0.773549
H  -2.770530  -1.239358   0.941031
C  -0.158867  -0.713000   0.021154
H  -1.404434   0.803794   0.762364
H  -1.389157   0.929802  -0.910457
H  -0.074648  -1.386587   0.982388
H   0.825270  -0.063941   0.011470
H  -0.135435  -1.331014  -0.825849
