14
butane_opt
C  -3.952346   0.255742   0.028000
C  -2.699357  -0.599510   0.013251
H  -4.882872  -0.384202  -0.052118
H  -3.991545   0.761726  -0.768675
H  -3.954976   1.009989   0.915975
C  -1.417596   0.205747   0.013276
H  -2.772547  -1.370542  -0.889216
H  -2.692255  -1.270679   0.904762
C  -0.143827  -0.705361   0.037535
H  -1.327929   0.906630   0.888175
H  -1.399725   0.799472  -0.832032
H  -0.058671  -1.556847   1.082293
H   0.689547  -0.150045  -0.214112
H  -0.068724  -1.098665  -0.673911
