butane_opt
 OpenBabel08242015413D

 14 13  0  0  0  0  0  0  0  0999 V2000
   -3.9283    0.2551    0.0776 C   0  0  0  0  0  0  0  0  0  0  0  0
   -2.7089   -0.5914   -0.0317 C   0  0  0  0  0  0  0  0  0  0  0  0
   -4.9407   -0.3870    0.1715 H   0  0  0  0  0  0  0  0  0  0  0  0
   -3.9401    0.8821   -0.8442 H   0  0  0  0  0  0  0  0  0  0  0  0
   -3.8959    0.9011    0.9231 H   0  0  0  0  0  0  0  0  0  0  0  0
   -1.4040    0.1890   -0.0348 C   0  0  0  0  0  0  0  0  0  0  0  0
   -2.7274   -1.3324   -0.9048 H   0  0  0  0  0  0  0  0  0  0  0  0
   -2.6084   -1.1729    0.8483 H   0  0  0  0  0  0  0  0  0  0  0  0
   -0.1738   -0.7100    0.0924 C   0  0  0  0  0  0  0  0  0  0  0  0
   -1.4216    0.8228    0.7501 H   0  0  0  0  0  0  0  0  0  0  0  0
   -1.3232    0.9330   -1.0082 H   0  0  0  0  0  0  0  0  0  0  0  0
   -0.2029   -1.3444    0.9671 H   0  0  0  0  0  0  0  0  0  0  0  0
    0.7516   -0.0897    0.0952 H   0  0  0  0  0  0  0  0  0  0  0  0
   -0.1208   -1.4134   -0.8016 H   0  0  0  0  0  0  0  0  0  0  0  0
  1  3  1  0  0  0  0
  1  5  1  0  0  0  0
  2  1  1  0  0  0  0
  2  8  1  0  0  0  0
  4  1  1  0  0  0  0
  6  2  1  0  0  0  0
  6  9  1  0  0  0  0
  6 10  1  0  0  0  0
  7  2  1  0  0  0  0
  9 13  1  0  0  0  0
  9 12  1  0  0  0  0
 11  6  1  0  0  0  0
 14  9  1  0  0  0  0
M  END
$$$$
