14
butane_opt
C  -3.928270   0.255052   0.077631
C  -2.708880  -0.591382  -0.031672
H  -4.940677  -0.387007   0.171509
H  -3.940113   0.882056  -0.844227
H  -3.895867   0.901116   0.923125
C  -1.403954   0.189014  -0.034778
H  -2.727445  -1.332407  -0.904802
H  -2.608354  -1.172928   0.848258
C  -0.173807  -0.710033   0.092426
H  -1.421552   0.822805   0.750115
H  -1.323211   0.932992  -1.008176
H  -0.202870  -1.344376   0.967053
H   0.751635  -0.089709   0.095169
H  -0.120766  -1.413402  -0.801628
