butane_opt
 OpenBabel08242015413D

 14 13  0  0  0  0  0  0  0  0999 V2000
   -3.9460    0.2536   -0.0060 C   0  0  0  0  0  0  0  0  0  0  0  0
   -2.7130   -0.6001    0.0513 C   0  0  0  0  0  0  0  0  0  0  0  0
   -4.8731   -0.3634    0.1171 H   0  0  0  0  0  0  0  0  0  0  0  0
   -4.0114    0.9708   -0.9809 H   0  0  0  0  0  0  0  0  0  0  0  0
   -3.8919    0.8488    0.8167 H   0  0  0  0  0  0  0  0  0  0  0  0
   -1.4085    0.1929    0.0477 C   0  0  0  0  0  0  0  0  0  0  0  0
   -2.7343   -1.2460   -0.7864 H   0  0  0  0  0  0  0  0  0  0  0  0
   -2.8155   -1.2710    0.9672 H   0  0  0  0  0  0  0  0  0  0  0  0
   -0.1345   -0.7034    0.0057 C   0  0  0  0  0  0  0  0  0  0  0  0
   -1.3995    0.9275    0.9229 H   0  0  0  0  0  0  0  0  0  0  0  0
   -1.3995    0.8037   -0.8270 H   0  0  0  0  0  0  0  0  0  0  0  0
   -0.1058   -1.3097    0.8925 H   0  0  0  0  0  0  0  0  0  0  0  0
    0.7614   -0.1463    0.0075 H   0  0  0  0  0  0  0  0  0  0  0  0
   -0.1253   -1.4044   -0.8859 H   0  0  0  0  0  0  0  0  0  0  0  0
  1  2  1  0  0  0  0
  1  3  1  0  0  0  0
  1  5  1  0  0  0  0
  2  8  1  0  0  0  0
  4  1  1  0  0  0  0
  6  2  1  0  0  0  0
  6 10  1  0  0  0  0
  7  2  1  0  0  0  0
  9 13  1  0  0  0  0
  9  6  1  0  0  0  0
  9 12  1  0  0  0  0
 11  6  1  0  0  0  0
 14  9  1  0  0  0  0
M  END
$$$$
