butane_opt
 OpenBabel08242015413D

 14 13  0  0  0  0  0  0  0  0999 V2000
   -3.9449    0.2555   -0.0340 C   0  0  0  0  0  0  0  0  0  0  0  0
   -2.7121   -0.5882    0.0974 C   0  0  0  0  0  0  0  0  0  0  0  0
   -4.9051   -0.3977    0.1747 H   0  0  0  0  0  0  0  0  0  0  0  0
   -3.9300    0.9708   -1.0082 H   0  0  0  0  0  0  0  0  0  0  0  0
   -3.9023    0.7695    0.7392 H   0  0  0  0  0  0  0  0  0  0  0  0
   -1.4097    0.1963    0.0528 C   0  0  0  0  0  0  0  0  0  0  0  0
   -2.5680   -1.3085   -0.7946 H   0  0  0  0  0  0  0  0  0  0  0  0
   -2.7917   -1.2747    1.0462 H   0  0  0  0  0  0  0  0  0  0  0  0
   -0.1572   -0.7074   -0.0073 C   0  0  0  0  0  0  0  0  0  0  0  0
   -1.3845    0.8615    0.9228 H   0  0  0  0  0  0  0  0  0  0  0  0
   -1.4548    0.8331   -0.8225 H   0  0  0  0  0  0  0  0  0  0  0  0
   -0.0783   -1.1350    0.6957 H   0  0  0  0  0  0  0  0  0  0  0  0
    0.7646   -0.1267    0.1445 H   0  0  0  0  0  0  0  0  0  0  0  0
   -0.0843   -1.5359   -0.9798 H   0  0  0  0  0  0  0  0  0  0  0  0
  1  2  1  0  0  0  0
  1  3  1  0  0  0  0
  1  5  1  0  0  0  0
  2  8  1  0  0  0  0
  4  1  1  0  0  0  0
  6  2  1  0  0  0  0
  6 10  1  0  0  0  0
  7  2  1  0  0  0  0
  9  6  1  0  0  0  0
  9 13  1  0  0  0  0
  9 12  1  0  0  0  0
 11  6  1  0  0  0  0
 14  9  1  0  0  0  0
M  END
$$$$
