butane_opt
 OpenBabel08242015413D

 14 13  0  0  0  0  0  0  0  0999 V2000
   -3.9595    0.2707    0.0577 C   0  0  0  0  0  0  0  0  0  0  0  0
   -2.7019   -0.6159    0.0161 C   0  0  0  0  0  0  0  0  0  0  0  0
   -4.9317   -0.3360   -0.1201 H   0  0  0  0  0  0  0  0  0  0  0  0
   -4.0399    0.7874   -0.7245 H   0  0  0  0  0  0  0  0  0  0  0  0
   -4.0199    1.1511    1.0634 H   0  0  0  0  0  0  0  0  0  0  0  0
   -1.3893    0.1639   -0.0493 C   0  0  0  0  0  0  0  0  0  0  0  0
   -2.7578   -1.4201   -0.8877 H   0  0  0  0  0  0  0  0  0  0  0  0
   -2.6670   -1.1545    0.8457 H   0  0  0  0  0  0  0  0  0  0  0  0
   -0.1567   -0.6882    0.0712 C   0  0  0  0  0  0  0  0  0  0  0  0
   -1.3340    0.7883    0.7794 H   0  0  0  0  0  0  0  0  0  0  0  0
   -1.2577    0.8648   -1.0123 H   0  0  0  0  0  0  0  0  0  0  0  0
   -0.1760   -1.4284    1.0379 H   0  0  0  0  0  0  0  0  0  0  0  0
    0.7652   -0.0593    0.0095 H   0  0  0  0  0  0  0  0  0  0  0  0
   -0.1043   -1.2370   -0.6797 H   0  0  0  0  0  0  0  0  0  0  0  0
  1  5  1  0  0  0  0
  2  1  1  0  0  0  0
  2  8  1  0  0  0  0
  3  1  1  0  0  0  0
  4  1  1  0  0  0  0
  6  2  1  0  0  0  0
  6  9  1  0  0  0  0
  6 10  1  0  0  0  0
  7  2  1  0  0  0  0
  9 12  1  0  0  0  0
 11  6  1  0  0  0  0
 13  9  1  0  0  0  0
 14  9  1  0  0  0  0
M  END
$$$$
