14
butane_opt
C  -3.965800   0.280192   0.042439
C  -2.704200  -0.633488   0.007129
H  -4.875538  -0.310617  -0.141734
H  -4.021279   0.786400  -0.744802
H  -4.011550   1.061521   0.932969
C  -1.410594   0.174209   0.000697
H  -2.744602  -1.319703  -0.863319
H  -2.713521  -1.277614   0.910050
C  -0.126896  -0.679833   0.063470
H  -1.371148   0.789070   0.858935
H  -1.357724   0.856980  -0.935139
H  -0.034407  -1.464366   1.036584
H   0.840948  -0.034745  -0.182526
H  -0.257828  -1.243845  -0.777433
