14
butane_opt
C  -3.938825   0.289528   0.004305
C  -2.694666  -0.625076   0.046237
H  -4.824061  -0.303500   0.053001
H  -3.955422   0.954186  -0.910300
H  -4.050389   0.871409   0.775216
C  -1.398175   0.139072   0.045157
H  -2.660630  -1.342027  -0.826824
H  -2.763017  -1.256795   0.960166
C  -0.169529  -0.668696   0.010614
H  -1.412508   0.857044   0.927488
H  -1.391259   0.797992  -0.805013
H  -0.110555  -1.311210   0.924674
H   0.808049  -0.029426  -0.116713
H  -0.262125  -1.314928  -0.820407
