14
butane_opt
C  -3.930558   0.265185  -0.032230
C  -2.682307  -0.630261   0.094845
H  -4.792744  -0.255683  -0.108559
H  -4.018322   0.808498  -0.831450
H  -4.024534   1.057868   0.882497
C  -1.398994   0.169729   0.038427
H  -2.668466  -1.219223  -0.714336
H  -2.742195  -1.332145   1.046636
C  -0.178368  -0.671876   0.004681
H  -1.366598   0.858349   0.894703
H  -1.502758   0.799607  -0.887038
H  -0.196766  -1.268205   0.873748
H   0.757334  -0.046308  -0.010073
H  -0.192256  -1.470237  -0.974560
