butane_opt
 OpenBabel08242015413D

 14 13  0  0  0  0  0  0  0  0999 V2000
   -3.9143    0.2424    0.0662 C   0  0  0  0  0  0  0  0  0  0  0  0
   -2.6958   -0.5974   -0.0047 C   0  0  0  0  0  0  0  0  0  0  0  0
   -4.7918   -0.3662    0.1099 H   0  0  0  0  0  0  0  0  0  0  0  0
   -4.0107    0.8737   -0.8096 H   0  0  0  0  0  0  0  0  0  0  0  0
   -3.9434    0.8697    0.9188 H   0  0  0  0  0  0  0  0  0  0  0  0
   -1.4183    0.1955   -0.0440 C   0  0  0  0  0  0  0  0  0  0  0  0
   -2.8289   -1.2840   -0.8660 H   0  0  0  0  0  0  0  0  0  0  0  0
   -2.6074   -1.1504    0.8278 H   0  0  0  0  0  0  0  0  0  0  0  0
   -0.1665   -0.7033    0.0726 C   0  0  0  0  0  0  0  0  0  0  0  0
   -1.5047    0.8212    0.7511 H   0  0  0  0  0  0  0  0  0  0  0  0
   -1.4312    0.9545   -0.9767 H   0  0  0  0  0  0  0  0  0  0  0  0
   -0.2054   -1.2787    0.9424 H   0  0  0  0  0  0  0  0  0  0  0  0
    0.7199   -0.1499    0.2619 H   0  0  0  0  0  0  0  0  0  0  0  0
   -0.0678   -1.4235   -0.8097 H   0  0  0  0  0  0  0  0  0  0  0  0
  1  3  1  0  0  0  0
  1  5  1  0  0  0  0
  2  1  1  0  0  0  0
  2  8  1  0  0  0  0
  4  1  1  0  0  0  0
  6  2  1  0  0  0  0
  6  9  1  0  0  0  0
  6 10  1  0  0  0  0
  7  2  1  0  0  0  0
  9 13  1  0  0  0  0
  9 12  1  0  0  0  0
 11  6  1  0  0  0  0
 14  9  1  0  0  0  0
M  END
$$$$
