14
butane_opt
C  -3.973350   0.287186   0.000301
C  -2.691688  -0.651591   0.088547
H  -4.883140  -0.285225  -0.000760
H  -3.953821   0.975959  -0.953583
H  -4.083610   0.915635   0.804044
C  -1.387091   0.170896   0.016066
H  -2.623746  -1.334289  -0.726108
H  -2.734436  -1.364207   1.007264
C  -0.161349  -0.674197  -0.002441
H  -1.328151   0.863028   0.889679
H  -1.402154   0.838973  -0.891973
H  -0.179063  -1.100178   0.719144
H   0.751032  -0.077328   0.293585
H  -0.034577  -1.485646  -0.941086
