butane_opt
 OpenBabel08242015413D

 14 13  0  0  0  0  0  0  0  0999 V2000
   -3.9658    0.2802    0.0424 C   0  0  0  0  0  0  0  0  0  0  0  0
   -2.7042   -0.6335    0.0071 C   0  0  0  0  0  0  0  0  0  0  0  0
   -4.8755   -0.3106   -0.1417 H   0  0  0  0  0  0  0  0  0  0  0  0
   -4.0213    0.7864   -0.7448 H   0  0  0  0  0  0  0  0  0  0  0  0
   -4.0115    1.0615    0.9330 H   0  0  0  0  0  0  0  0  0  0  0  0
   -1.4106    0.1742    0.0007 C   0  0  0  0  0  0  0  0  0  0  0  0
   -2.7446   -1.3197   -0.8633 H   0  0  0  0  0  0  0  0  0  0  0  0
   -2.7135   -1.2776    0.9101 H   0  0  0  0  0  0  0  0  0  0  0  0
   -0.1269   -0.6798    0.0635 C   0  0  0  0  0  0  0  0  0  0  0  0
   -1.3711    0.7891    0.8589 H   0  0  0  0  0  0  0  0  0  0  0  0
   -1.3577    0.8570   -0.9351 H   0  0  0  0  0  0  0  0  0  0  0  0
   -0.0344   -1.4644    1.0366 H   0  0  0  0  0  0  0  0  0  0  0  0
    0.8409   -0.0347   -0.1825 H   0  0  0  0  0  0  0  0  0  0  0  0
   -0.2578   -1.2438   -0.7774 H   0  0  0  0  0  0  0  0  0  0  0  0
  1  5  1  0  0  0  0
  2  1  1  0  0  0  0
  2  8  1  0  0  0  0
  3  1  1  0  0  0  0
  4  1  1  0  0  0  0
  6  2  1  0  0  0  0
  6  9  1  0  0  0  0
  6 10  1  0  0  0  0
  7  2  1  0  0  0  0
  9 12  1  0  0  0  0
 11  6  1  0  0  0  0
 13  9  1  0  0  0  0
 14  9  1  0  0  0  0
M  END
$$$$
