14
butane_opt
C  -3.980271   0.294066  -0.020518
C  -2.689683  -0.638112   0.057509
H  -4.848885  -0.283238  -0.010307
H  -3.969024   0.919217  -0.918266
H  -4.068275   0.865511   0.754880
C  -1.377176   0.158836   0.096048
H  -2.723746  -1.302170  -0.790192
H  -2.701220  -1.254802   0.947875
C  -0.169179  -0.674622  -0.001375
H  -1.327818   0.854651   0.909303
H  -1.336307   0.766693  -0.807643
H  -0.007757  -1.397151   0.902187
H   0.808519  -0.036144  -0.305508
H  -0.270010  -1.268670  -0.826644
