14
butane_opt
C  -3.941420   0.267595  -0.016188
C  -2.696175  -0.605197   0.045333
H  -4.814555  -0.282736   0.254109
H  -3.976042   1.030774  -1.019634
H  -3.858224   0.773863   0.736827
C  -1.405945   0.176029   0.062983
H  -2.614169  -1.267902  -0.736760
H  -2.820594  -1.290078   1.005049
C  -0.168588  -0.700233  -0.004873
H  -1.357091   0.844675   0.948827
H  -1.423962   0.733212  -0.795205
H  -0.223959  -1.172148   0.798365
H   0.822067  -0.047005   0.042444
H  -0.218756  -1.424671  -0.858885
