14
butane_opt
C  -3.934297   0.283379   0.052379
C  -2.694600  -0.642277   0.006338
H  -4.846373  -0.315988   0.080480
H  -3.971927   0.923675  -0.844650
H  -3.959132   1.026132   0.952401
C  -1.400014   0.160910  -0.042138
H  -2.766346  -1.308120  -0.857572
H  -2.545054  -1.241208   0.865910
C  -0.197390  -0.677412   0.070213
H  -1.348474   0.861226   0.802164
H  -1.326950   0.721147  -0.908149
H  -0.172203  -1.311514   0.968081
H   0.727194  -0.025051   0.110935
H  -0.106929  -1.293190  -0.765792
