14
butane_opt
C  -3.975682   0.287468   0.000876
C  -2.700239  -0.647643   0.078733
H  -4.806769  -0.256882  -0.272519
H  -3.873956   0.815728  -0.847808
H  -4.099161   1.051253   0.919340
C  -1.395390   0.152218   0.029421
H  -2.701577  -1.258152  -0.697545
H  -2.708694  -1.349878   1.000065
C  -0.140640  -0.669802   0.009896
H  -1.367025   0.858760   0.893441
H  -1.447433   0.860872  -0.950215
H  -0.094714  -1.224618   0.862909
H   0.821194  -0.022721  -0.034092
H  -0.228678  -1.398206  -0.860235
