butane_opt
 OpenBabel08242015413D

 14 13  0  0  0  0  0  0  0  0999 V2000
   -3.9393    0.2746    0.0529 C   0  0  0  0  0  0  0  0  0  0  0  0
   -2.7195   -0.6406   -0.0264 C   0  0  0  0  0  0  0  0  0  0  0  0
   -4.8492   -0.2787    0.0770 H   0  0  0  0  0  0  0  0  0  0  0  0
   -4.0674    0.8801   -0.7929 H   0  0  0  0  0  0  0  0  0  0  0  0
   -4.0147    0.9620    0.9361 H   0  0  0  0  0  0  0  0  0  0  0  0
   -1.3868    0.1891   -0.0080 C   0  0  0  0  0  0  0  0  0  0  0  0
   -2.7791   -1.3069   -0.8946 H   0  0  0  0  0  0  0  0  0  0  0  0
   -2.6103   -1.2125    0.8461 H   0  0  0  0  0  0  0  0  0  0  0  0
   -0.1567   -0.7000    0.0658 C   0  0  0  0  0  0  0  0  0  0  0  0
   -1.3976    0.8762    0.8867 H   0  0  0  0  0  0  0  0  0  0  0  0
   -1.3419    0.8436   -0.8885 H   0  0  0  0  0  0  0  0  0  0  0  0
   -0.1126   -1.4896    1.0916 H   0  0  0  0  0  0  0  0  0  0  0  0
    0.8169   -0.0575   -0.1221 H   0  0  0  0  0  0  0  0  0  0  0  0
   -0.2343   -1.1666   -0.6974 H   0  0  0  0  0  0  0  0  0  0  0  0
  1  3  1  0  0  0  0
  1  5  1  0  0  0  0
  2  6  1  0  0  0  0
  2  1  1  0  0  0  0
  2  8  1  0  0  0  0
  4  1  1  0  0  0  0
  6  9  1  0  0  0  0
  6 10  1  0  0  0  0
  7  2  1  0  0  0  0
  9 12  1  0  0  0  0
 11  6  1  0  0  0  0
 13  9  1  0  0  0  0
 14  9  1  0  0  0  0
M  END
$$$$
