14
butane_opt
C  -3.953277   0.263167  -0.031543
C  -2.714953  -0.606472   0.088425
H  -4.878933  -0.375366   0.024532
H  -3.961704   0.973995  -0.955628
H  -4.046883   0.863239   0.777893
C  -1.383151   0.181414   0.060099
H  -2.736974  -1.287817  -0.777547
H  -2.762375  -1.251087   0.980543
C  -0.135873  -0.707740  -0.019731
H  -1.418814   1.031902   0.994100
H  -1.409355   0.743089  -0.746364
H  -0.033722  -1.361057   0.910222
H   0.760969  -0.090193  -0.092898
H  -0.273568  -1.292929  -0.843774
