butane_opt
 OpenBabel08242015413D

 14 13  0  0  0  0  0  0  0  0999 V2000
   -3.9271    0.2513   -0.0050 C   0  0  0  0  0  0  0  0  0  0  0  0
   -2.7010   -0.5763    0.0647 C   0  0  0  0  0  0  0  0  0  0  0  0
   -4.9218   -0.3997    0.1206 H   0  0  0  0  0  0  0  0  0  0  0  0
   -3.9794    1.0124   -0.9501 H   0  0  0  0  0  0  0  0  0  0  0  0
   -3.8629    0.6835    0.7109 H   0  0  0  0  0  0  0  0  0  0  0  0
   -1.4303    0.1814    0.0443 C   0  0  0  0  0  0  0  0  0  0  0  0
   -2.6836   -1.2345   -0.7893 H   0  0  0  0  0  0  0  0  0  0  0  0
   -2.7122   -1.2650    1.0310 H   0  0  0  0  0  0  0  0  0  0  0  0
   -0.1575   -0.6984    0.0045 C   0  0  0  0  0  0  0  0  0  0  0  0
   -1.4501    0.8834    0.8968 H   0  0  0  0  0  0  0  0  0  0  0  0
   -1.3096    0.8174   -0.8945 H   0  0  0  0  0  0  0  0  0  0  0  0
   -0.1244   -1.1534    0.7747 H   0  0  0  0  0  0  0  0  0  0  0  0
    0.7206   -0.1229    0.1649 H   0  0  0  0  0  0  0  0  0  0  0  0
   -0.1027   -1.6059   -0.9782 H   0  0  0  0  0  0  0  0  0  0  0  0
  1  2  1  0  0  0  0
  1  3  1  0  0  0  0
  1  5  1  0  0  0  0
  2  8  1  0  0  0  0
  4  1  1  0  0  0  0
  6  2  1  0  0  0  0
  6 10  1  0  0  0  0
  7  2  1  0  0  0  0
  9  6  1  0  0  0  0
  9 13  1  0  0  0  0
  9 12  1  0  0  0  0
 11  6  1  0  0  0  0
 14  9  1  0  0  0  0
M  END
$$$$
