butane_opt
 OpenBabel08242015413D

 14 13  0  0  0  0  0  0  0  0999 V2000
   -3.9343    0.2834    0.0524 C   0  0  0  0  0  0  0  0  0  0  0  0
   -2.6946   -0.6423    0.0063 C   0  0  0  0  0  0  0  0  0  0  0  0
   -4.8464   -0.3160    0.0805 H   0  0  0  0  0  0  0  0  0  0  0  0
   -3.9719    0.9237   -0.8447 H   0  0  0  0  0  0  0  0  0  0  0  0
   -3.9591    1.0261    0.9524 H   0  0  0  0  0  0  0  0  0  0  0  0
   -1.4000    0.1609   -0.0421 C   0  0  0  0  0  0  0  0  0  0  0  0
   -2.7663   -1.3081   -0.8576 H   0  0  0  0  0  0  0  0  0  0  0  0
   -2.5451   -1.2412    0.8659 H   0  0  0  0  0  0  0  0  0  0  0  0
   -0.1974   -0.6774    0.0702 C   0  0  0  0  0  0  0  0  0  0  0  0
   -1.3485    0.8612    0.8022 H   0  0  0  0  0  0  0  0  0  0  0  0
   -1.3270    0.7211   -0.9081 H   0  0  0  0  0  0  0  0  0  0  0  0
   -0.1722   -1.3115    0.9681 H   0  0  0  0  0  0  0  0  0  0  0  0
    0.7272   -0.0251    0.1109 H   0  0  0  0  0  0  0  0  0  0  0  0
   -0.1069   -1.2932   -0.7658 H   0  0  0  0  0  0  0  0  0  0  0  0
  1  3  1  0  0  0  0
  1  5  1  0  0  0  0
  2  1  1  0  0  0  0
  2  8  1  0  0  0  0
  4  1  1  0  0  0  0
  6  2  1  0  0  0  0
  6  9  1  0  0  0  0
  6 10  1  0  0  0  0
  7  2  1  0  0  0  0
  9 13  1  0  0  0  0
  9 12  1  0  0  0  0
 11  6  1  0  0  0  0
 14  9  1  0  0  0  0
M  END
$$$$
