butane_opt
 OpenBabel08242015413D

 14 13  0  0  0  0  0  0  0  0999 V2000
   -3.9533    0.2632   -0.0315 C   0  0  0  0  0  0  0  0  0  0  0  0
   -2.7150   -0.6065    0.0884 C   0  0  0  0  0  0  0  0  0  0  0  0
   -4.8789   -0.3754    0.0245 H   0  0  0  0  0  0  0  0  0  0  0  0
   -3.9617    0.9740   -0.9556 H   0  0  0  0  0  0  0  0  0  0  0  0
   -4.0469    0.8632    0.7779 H   0  0  0  0  0  0  0  0  0  0  0  0
   -1.3832    0.1814    0.0601 C   0  0  0  0  0  0  0  0  0  0  0  0
   -2.7370   -1.2878   -0.7775 H   0  0  0  0  0  0  0  0  0  0  0  0
   -2.7624   -1.2511    0.9805 H   0  0  0  0  0  0  0  0  0  0  0  0
   -0.1359   -0.7077   -0.0197 C   0  0  0  0  0  0  0  0  0  0  0  0
   -1.4188    1.0319    0.9941 H   0  0  0  0  0  0  0  0  0  0  0  0
   -1.4094    0.7431   -0.7464 H   0  0  0  0  0  0  0  0  0  0  0  0
   -0.0337   -1.3611    0.9102 H   0  0  0  0  0  0  0  0  0  0  0  0
    0.7610   -0.0902   -0.0929 H   0  0  0  0  0  0  0  0  0  0  0  0
   -0.2736   -1.2929   -0.8438 H   0  0  0  0  0  0  0  0  0  0  0  0
  1  3  1  0  0  0  0
  1  2  1  0  0  0  0
  1  5  1  0  0  0  0
  2  8  1  0  0  0  0
  4  1  1  0  0  0  0
  6  2  1  0  0  0  0
  6 10  1  0  0  0  0
  7  2  1  0  0  0  0
  9  6  1  0  0  0  0
  9 12  1  0  0  0  0
 11  6  1  0  0  0  0
 13  9  1  0  0  0  0
 14  9  1  0  0  0  0
M  END
$$$$
