14
butane_opt
C  -3.910993   0.237209   0.007772
C  -2.712171  -0.590681   0.022639
H  -4.789280  -0.357735   0.227729
H  -4.109471   1.098617  -0.983102
H  -3.848657   0.700395   0.744843
C  -1.415790   0.211113   0.052769
H  -2.677928  -1.285681  -0.825946
H  -2.727318  -1.169675   0.891846
C  -0.166796  -0.709820   0.022221
H  -1.362231   0.866946   0.904258
H  -1.468742   0.807372  -0.851054
H  -0.125814  -1.320618   0.919788
H   0.756413  -0.140971   0.008749
H  -0.187819  -1.440944  -0.885961
