14
butane_opt
C  -3.963195   0.292873  -0.021497
C  -2.708671  -0.650489   0.073746
H  -4.830373  -0.232888   0.198414
H  -4.047018   1.153362  -1.076455
H  -3.953173   0.707515   0.663136
C  -1.394716   0.168262   0.066527
H  -2.689146  -1.335524  -0.751468
H  -2.798024  -1.251679   0.976759
C  -0.148478  -0.681780   0.000949
H  -1.342468   0.880874   0.920560
H  -1.339952   0.711306  -0.755436
H  -0.078189  -1.145926   0.747636
H   0.831367   0.021108   0.008159
H  -0.218366  -1.503103  -0.971049
