butane_opt
 OpenBabel08242015413D

 14 13  0  0  0  0  0  0  0  0999 V2000
   -3.9757    0.2875    0.0009 C   0  0  0  0  0  0  0  0  0  0  0  0
   -2.7002   -0.6476    0.0787 C   0  0  0  0  0  0  0  0  0  0  0  0
   -4.8068   -0.2569   -0.2725 H   0  0  0  0  0  0  0  0  0  0  0  0
   -3.8740    0.8157   -0.8478 H   0  0  0  0  0  0  0  0  0  0  0  0
   -4.0992    1.0513    0.9193 H   0  0  0  0  0  0  0  0  0  0  0  0
   -1.3954    0.1522    0.0294 C   0  0  0  0  0  0  0  0  0  0  0  0
   -2.7016   -1.2582   -0.6975 H   0  0  0  0  0  0  0  0  0  0  0  0
   -2.7087   -1.3499    1.0001 H   0  0  0  0  0  0  0  0  0  0  0  0
   -0.1406   -0.6698    0.0099 C   0  0  0  0  0  0  0  0  0  0  0  0
   -1.3670    0.8588    0.8934 H   0  0  0  0  0  0  0  0  0  0  0  0
   -1.4474    0.8609   -0.9502 H   0  0  0  0  0  0  0  0  0  0  0  0
   -0.0947   -1.2246    0.8629 H   0  0  0  0  0  0  0  0  0  0  0  0
    0.8212   -0.0227   -0.0341 H   0  0  0  0  0  0  0  0  0  0  0  0
   -0.2287   -1.3982   -0.8602 H   0  0  0  0  0  0  0  0  0  0  0  0
  1  2  1  0  0  0  0
  1  5  1  0  0  0  0
  2  8  1  0  0  0  0
  3  1  1  0  0  0  0
  4  1  1  0  0  0  0
  6  2  1  0  0  0  0
  6 10  1  0  0  0  0
  7  2  1  0  0  0  0
  9  6  1  0  0  0  0
  9 12  1  0  0  0  0
 11  6  1  0  0  0  0
 13  9  1  0  0  0  0
 14  9  1  0  0  0  0
M  END
$$$$
