14
butane_opt
C  -3.939280   0.274614   0.052886
C  -2.719479  -0.640644  -0.026415
H  -4.849249  -0.278688   0.077045
H  -4.067402   0.880112  -0.792934
H  -4.014692   0.962046   0.936133
C  -1.386781   0.189069  -0.008040
H  -2.779099  -1.306859  -0.894644
H  -2.610338  -1.212536   0.846066
C  -0.156673  -0.700021   0.065843
H  -1.397576   0.876196   0.886691
H  -1.341897   0.843607  -0.888462
H  -0.112595  -1.489614   1.091552
H   0.816889  -0.057451  -0.122069
H  -0.234284  -1.166594  -0.697438
