butane_opt
 OpenBabel08242015413D

 14 13  0  0  0  0  0  0  0  0999 V2000
   -3.9415    0.2512   -0.0491 C   0  0  0  0  0  0  0  0  0  0  0  0
   -2.7282   -0.6098    0.1193 C   0  0  0  0  0  0  0  0  0  0  0  0
   -4.7895   -0.3227   -0.0908 H   0  0  0  0  0  0  0  0  0  0  0  0
   -3.8474    0.8097   -0.8983 H   0  0  0  0  0  0  0  0  0  0  0  0
   -4.0638    0.9583    0.8034 H   0  0  0  0  0  0  0  0  0  0  0  0
   -1.4086    0.2059    0.0572 C   0  0  0  0  0  0  0  0  0  0  0  0
   -2.7291   -1.1999   -0.6386 H   0  0  0  0  0  0  0  0  0  0  0  0
   -2.8242   -1.2264    1.0444 H   0  0  0  0  0  0  0  0  0  0  0  0
   -0.1371   -0.7106   -0.0217 C   0  0  0  0  0  0  0  0  0  0  0  0
   -1.2793    0.8823    0.9462 H   0  0  0  0  0  0  0  0  0  0  0  0
   -1.4769    0.8233   -0.8415 H   0  0  0  0  0  0  0  0  0  0  0  0
   -0.0231   -1.2034    0.7961 H   0  0  0  0  0  0  0  0  0  0  0  0
    0.7072   -0.1623    0.0066 H   0  0  0  0  0  0  0  0  0  0  0  0
   -0.1183   -1.4802   -0.9559 H   0  0  0  0  0  0  0  0  0  0  0  0
  1  2  1  0  0  0  0
  1  5  1  0  0  0  0
  2  8  1  0  0  0  0
  3  1  1  0  0  0  0
  4  1  1  0  0  0  0
  6  2  1  0  0  0  0
  6 10  1  0  0  0  0
  7  2  1  0  0  0  0
  9 13  1  0  0  0  0
  9  6  1  0  0  0  0
  9 12  1  0  0  0  0
 11  6  1  0  0  0  0
 14  9  1  0  0  0  0
M  END
$$$$
