butane_opt
 OpenBabel08242015413D

 14 13  0  0  0  0  0  0  0  0999 V2000
   -3.9443    0.2696    0.0555 C   0  0  0  0  0  0  0  0  0  0  0  0
   -2.6946   -0.6282    0.0043 C   0  0  0  0  0  0  0  0  0  0  0  0
   -4.8295   -0.2923   -0.0804 H   0  0  0  0  0  0  0  0  0  0  0  0
   -4.0456    0.6608   -0.6870 H   0  0  0  0  0  0  0  0  0  0  0  0
   -3.9762    1.1432    1.0477 H   0  0  0  0  0  0  0  0  0  0  0  0
   -1.3939    0.1743   -0.0409 C   0  0  0  0  0  0  0  0  0  0  0  0
   -2.6946   -1.3138   -0.8714 H   0  0  0  0  0  0  0  0  0  0  0  0
   -2.6248   -1.1633    0.8670 H   0  0  0  0  0  0  0  0  0  0  0  0
   -0.1770   -0.6884    0.0877 C   0  0  0  0  0  0  0  0  0  0  0  0
   -1.3419    0.7178    0.7085 H   0  0  0  0  0  0  0  0  0  0  0  0
   -1.3361    0.9347   -1.0504 H   0  0  0  0  0  0  0  0  0  0  0  0
   -0.2151   -1.3063    1.0137 H   0  0  0  0  0  0  0  0  0  0  0  0
    0.6886   -0.1255   -0.0076 H   0  0  0  0  0  0  0  0  0  0  0  0
   -0.1170   -1.2738   -0.7575 H   0  0  0  0  0  0  0  0  0  0  0  0
  1  5  1  0  0  0  0
  2  1  1  0  0  0  0
  2  8  1  0  0  0  0
  3  1  1  0  0  0  0
  4  1  1  0  0  0  0
  6  2  1  0  0  0  0
  6  9  1  0  0  0  0
  6 10  1  0  0  0  0
  7  2  1  0  0  0  0
  9 12  1  0  0  0  0
 11  6  1  0  0  0  0
 13  9  1  0  0  0  0
 14  9  1  0  0  0  0
M  END
$$$$
