14
butane_opt
C  -3.907259   0.254402  -0.025825
C  -2.712729  -0.613370   0.107333
H  -4.777648  -0.335607   0.117913
H  -3.886954   1.049578  -1.031628
H  -3.962035   0.737758   0.721879
C  -1.427083   0.202427   0.040736
H  -2.694832  -1.266907  -0.702890
H  -2.713973  -1.200626   0.970218
C  -0.165317  -0.707536  -0.007842
H  -1.413157   0.921921   0.930996
H  -1.402154   0.776389  -0.854383
H  -0.236612  -1.058626   0.731848
H   0.729417  -0.134853   0.160562
H  -0.113739  -1.595419  -1.026158
