14
butane_opt
C  -3.940789   0.258827  -0.042633
C  -2.685570  -0.593636   0.089042
H  -4.941555  -0.369464   0.091179
H  -3.899952   0.899828  -1.003787
H  -3.946625   0.886447   0.760953
C  -1.421441   0.183961   0.070372
H  -2.705346  -1.284926  -0.723866
H  -2.731709  -1.265498   1.011698
C  -0.168992  -0.695595  -0.021770
H  -1.289252   0.922295   0.967542
H  -1.512109   0.673439  -0.713785
H  -0.065857  -1.339326   0.883725
H   0.780569  -0.085279  -0.091884
H  -0.118252  -1.342599  -0.878529
