14
butane_opt
C  -3.960738   0.260001   0.049120
C  -2.724956  -0.619609   0.013521
H  -4.830968  -0.327537  -0.103329
H  -3.922608   0.619598  -0.675313
H  -4.005152   1.125840   1.071262
C  -1.410947   0.196565  -0.035684
H  -2.697786  -1.300859  -0.849598
H  -2.725908  -1.167213   0.876869
C  -0.123474  -0.707675   0.064057
H  -1.489116   0.782082   0.761470
H  -1.370424   0.973784  -1.022399
H  -0.098157  -1.389811   1.022265
H   0.818665  -0.108699   0.016216
H  -0.068735  -1.233521  -0.712073
