butane_opt
 OpenBabel08242015413D

 14 13  0  0  0  0  0  0  0  0999 V2000
   -3.9442    0.2849    0.0617 C   0  0  0  0  0  0  0  0  0  0  0  0
   -2.6908   -0.6185    0.0068 C   0  0  0  0  0  0  0  0  0  0  0  0
   -4.8625   -0.3311   -0.2430 H   0  0  0  0  0  0  0  0  0  0  0  0
   -3.9186    0.6140   -0.6873 H   0  0  0  0  0  0  0  0  0  0  0  0
   -3.9758    1.1453    1.0760 H   0  0  0  0  0  0  0  0  0  0  0  0
   -1.4082    0.1499   -0.0368 C   0  0  0  0  0  0  0  0  0  0  0  0
   -2.5838   -1.2996   -0.7893 H   0  0  0  0  0  0  0  0  0  0  0  0
   -2.6707   -1.2454    0.8896 H   0  0  0  0  0  0  0  0  0  0  0  0
   -0.1884   -0.6744    0.0657 C   0  0  0  0  0  0  0  0  0  0  0  0
   -1.4243    0.7410    0.7433 H   0  0  0  0  0  0  0  0  0  0  0  0
   -1.3493    0.8589   -0.9829 H   0  0  0  0  0  0  0  0  0  0  0  0
   -0.1279   -1.3979    1.0642 H   0  0  0  0  0  0  0  0  0  0  0  0
    0.7817   -0.0166   -0.0590 H   0  0  0  0  0  0  0  0  0  0  0  0
   -0.1335   -1.2348   -0.7080 H   0  0  0  0  0  0  0  0  0  0  0  0
  1  5  1  0  0  0  0
  2  1  1  0  0  0  0
  2  8  1  0  0  0  0
  3  1  1  0  0  0  0
  4  1  1  0  0  0  0
  6  2  1  0  0  0  0
  6  9  1  0  0  0  0
  6 10  1  0  0  0  0
  7  2  1  0  0  0  0
  9 12  1  0  0  0  0
 11  6  1  0  0  0  0
 13  9  1  0  0  0  0
 14  9  1  0  0  0  0
M  END
$$$$
