butane_opt
 OpenBabel08242015413D

 14 13  0  0  0  0  0  0  0  0999 V2000
   -3.9355    0.2876    0.0569 C   0  0  0  0  0  0  0  0  0  0  0  0
   -2.6984   -0.6335   -0.0436 C   0  0  0  0  0  0  0  0  0  0  0  0
   -4.9302   -0.3358    0.1498 H   0  0  0  0  0  0  0  0  0  0  0  0
   -4.0419    0.7819   -0.7731 H   0  0  0  0  0  0  0  0  0  0  0  0
   -3.8899    1.0624    0.9897 H   0  0  0  0  0  0  0  0  0  0  0  0
   -1.4005    0.1603   -0.0096 C   0  0  0  0  0  0  0  0  0  0  0  0
   -2.6995   -1.3053   -0.8821 H   0  0  0  0  0  0  0  0  0  0  0  0
   -2.6035   -1.2208    0.7842 H   0  0  0  0  0  0  0  0  0  0  0  0
   -0.1793   -0.6818    0.0745 C   0  0  0  0  0  0  0  0  0  0  0  0
   -1.3889    0.8033    0.8442 H   0  0  0  0  0  0  0  0  0  0  0  0
   -1.3430    0.8342   -0.9266 H   0  0  0  0  0  0  0  0  0  0  0  0
   -0.1545   -1.5371    1.1407 H   0  0  0  0  0  0  0  0  0  0  0  0
    0.7880   -0.0168   -0.1450 H   0  0  0  0  0  0  0  0  0  0  0  0
   -0.2036   -1.1248   -0.6457 H   0  0  0  0  0  0  0  0  0  0  0  0
  1  3  1  0  0  0  0
  1  5  1  0  0  0  0
  2  6  1  0  0  0  0
  2  1  1  0  0  0  0
  2  8  1  0  0  0  0
  4  1  1  0  0  0  0
  6  9  1  0  0  0  0
  6 10  1  0  0  0  0
  7  2  1  0  0  0  0
  9 12  1  0  0  0  0
 11  6  1  0  0  0  0
 13  9  1  0  0  0  0
 14  9  1  0  0  0  0
M  END
$$$$
