14
butane_opt
C  -3.927150   0.245393   0.068863
C  -2.689011  -0.591661   0.006767
H  -4.938508  -0.419105   0.014673
H  -3.905650   0.752795  -0.754424
H  -3.911108   1.022567   0.971785
C  -1.413401   0.199304  -0.062594
H  -2.749943  -1.298692  -0.874673
H  -2.648156  -1.217024   0.900995
C  -0.167314  -0.714618   0.069818
H  -1.497481   0.861897   0.772685
H  -1.423846   0.935539  -0.986767
H  -0.331726  -1.277007   0.965752
H   0.711333  -0.157784   0.203353
H   0.053784  -1.364913  -0.766793
