14
butane_opt
C  -3.929168   0.241903   0.009520
C  -2.702742  -0.591852   0.063212
H  -4.850019  -0.370396  -0.000159
H  -3.887670   0.885216  -0.920714
H  -4.002420   0.929973   0.866727
C  -1.434623   0.187938   0.022266
H  -2.743120  -1.276093  -0.814342
H  -2.726048  -1.177132   0.929566
C  -0.152504  -0.703431   0.027420
H  -1.445975   0.901403   0.873784
H  -1.370373   0.838653  -0.945319
H  -0.074880  -1.300140   0.851888
H   0.793800  -0.087800  -0.030797
H  -0.091511  -1.428991  -0.846748
