14
butane_opt
C  -3.985697   0.282525  -0.025889
C  -2.684204  -0.643319   0.060525
H  -4.894841  -0.303223   0.195216
H  -4.134211   1.108849  -1.029867
H  -3.872955   0.772807   0.764066
C  -1.391484   0.167485   0.071565
H  -2.644233  -1.321681  -0.782938
H  -2.689681  -1.200045   0.900433
C  -0.151949  -0.678652   0.002843
H  -1.283739   0.860045   0.917714
H  -1.350573   0.766300  -0.773682
H  -0.116872  -1.238599   0.866640
H   0.790011  -0.079781  -0.056284
H  -0.260420  -1.368909  -0.898378
