butane_opt
 OpenBabel08242015413D

 14 13  0  0  0  0  0  0  0  0999 V2000
   -3.9440    0.2898    0.0608 C   0  0  0  0  0  0  0  0  0  0  0  0
   -2.6850   -0.6385   -0.0170 C   0  0  0  0  0  0  0  0  0  0  0  0
   -4.8270   -0.2804    0.2500 H   0  0  0  0  0  0  0  0  0  0  0  0
   -4.0153    0.9682   -0.9076 H   0  0  0  0  0  0  0  0  0  0  0  0
   -3.9188    0.8334    0.8054 H   0  0  0  0  0  0  0  0  0  0  0  0
   -1.3988    0.1539   -0.0067 C   0  0  0  0  0  0  0  0  0  0  0  0
   -2.7136   -1.4003   -0.9408 H   0  0  0  0  0  0  0  0  0  0  0  0
   -2.5964   -1.2043    0.8151 H   0  0  0  0  0  0  0  0  0  0  0  0
   -0.1945   -0.6654    0.0610 C   0  0  0  0  0  0  0  0  0  0  0  0
   -1.4792    0.8243    0.8183 H   0  0  0  0  0  0  0  0  0  0  0  0
   -1.3319    0.8010   -0.8607 H   0  0  0  0  0  0  0  0  0  0  0  0
   -0.1491   -1.3590    1.0122 H   0  0  0  0  0  0  0  0  0  0  0  0
    0.7818   -0.0530    0.0285 H   0  0  0  0  0  0  0  0  0  0  0  0
   -0.1315   -1.2606   -0.7597 H   0  0  0  0  0  0  0  0  0  0  0  0
  1  3  1  0  0  0  0
  1  5  1  0  0  0  0
  2  6  1  0  0  0  0
  2  1  1  0  0  0  0
  2  8  1  0  0  0  0
  4  1  1  0  0  0  0
  6  9  1  0  0  0  0
  6 10  1  0  0  0  0
  7  2  1  0  0  0  0
  9 12  1  0  0  0  0
 11  6  1  0  0  0  0
 13  9  1  0  0  0  0
 14  9  1  0  0  0  0
M  END
$$$$
