butane_opt
 OpenBabel08242015413D

 14 13  0  0  0  0  0  0  0  0999 V2000
   -3.9734    0.2720    0.0620 C   0  0  0  0  0  0  0  0  0  0  0  0
   -2.6965   -0.6264   -0.0396 C   0  0  0  0  0  0  0  0  0  0  0  0
   -4.8354   -0.2807    0.2229 H   0  0  0  0  0  0  0  0  0  0  0  0
   -4.1292    0.9385   -0.8250 H   0  0  0  0  0  0  0  0  0  0  0  0
   -3.8722    0.9219    0.9114 H   0  0  0  0  0  0  0  0  0  0  0  0
   -1.3980    0.1736   -0.0185 C   0  0  0  0  0  0  0  0  0  0  0  0
   -2.7508   -1.4003   -0.9234 H   0  0  0  0  0  0  0  0  0  0  0  0
   -2.5991   -1.2328    0.8038 H   0  0  0  0  0  0  0  0  0  0  0  0
   -0.1534   -0.6853    0.0761 C   0  0  0  0  0  0  0  0  0  0  0  0
   -1.4040    0.8740    0.8227 H   0  0  0  0  0  0  0  0  0  0  0  0
   -1.3665    0.8226   -0.9393 H   0  0  0  0  0  0  0  0  0  0  0  0
   -0.1161   -1.4544    1.0972 H   0  0  0  0  0  0  0  0  0  0  0  0
    0.8814    0.0042    0.0092 H   0  0  0  0  0  0  0  0  0  0  0  0
   -0.1921   -1.2461   -0.6859 H   0  0  0  0  0  0  0  0  0  0  0  0
  1  3  1  0  0  0  0
  1  5  1  0  0  0  0
  2  6  1  0  0  0  0
  2  1  1  0  0  0  0
  2  8  1  0  0  0  0
  4  1  1  0  0  0  0
  6  9  1  0  0  0  0
  6 10  1  0  0  0  0
  7  2  1  0  0  0  0
  9 12  1  0  0  0  0
 11  6  1  0  0  0  0
 13  9  1  0  0  0  0
 14  9  1  0  0  0  0
M  END
$$$$
