14
butane_opt
C  -3.949775   0.254357   0.006631
C  -2.730983  -0.607925   0.045789
H  -4.889354  -0.340253   0.213156
H  -4.010426   1.058053  -1.068648
H  -3.820284   0.718943   0.755814
C  -1.413776   0.208080   0.043354
H  -2.804012  -1.287483  -0.795174
H  -2.698274  -1.134709   0.887760
C  -0.126645  -0.723468   0.008669
H  -1.319151   0.895656   0.883127
H  -1.406456   0.832644  -0.828933
H  -0.153181  -1.274859   0.864375
H   0.783313  -0.079973   0.148290
H  -0.050912  -1.437742  -0.903542
