14
butane_opt
C  -3.938390   0.272172   0.062756
C  -2.688291  -0.620934  -0.032724
H  -4.823481  -0.330998   0.090869
H  -4.080169   0.845546  -0.795040
H  -3.997045   1.039403   0.992584
C  -1.418968   0.153262  -0.019727
H  -2.781499  -1.345746  -0.925526
H  -2.596723  -1.211858   0.810377
C  -0.160454  -0.678031   0.073996
H  -1.370764   0.914673   0.848024
H  -1.337084   0.791260  -0.938670
H  -0.177951  -1.551682   1.136689
H   0.812607  -0.007683  -0.133357
H  -0.195234  -1.123620  -0.628755
