14
butane_opt
C  -3.937413   0.242214  -0.041726
C  -2.701411  -0.593543   0.096827
H  -4.906417  -0.374515  -0.092621
H  -3.806677   0.826061  -0.935553
H  -4.041846   0.974388   0.852820
C  -1.410033   0.195610   0.061132
H  -2.709527  -1.152865  -0.607143
H  -2.729018  -1.367346   1.090750
C  -0.156149  -0.693823  -0.024597
H  -1.396171   0.961314   0.982732
H  -1.450853   0.829590  -0.817491
H  -0.045019  -1.285609   0.833146
H   0.672876  -0.208524   0.003609
H  -0.144922  -1.499157  -0.976471
