butane_opt
 OpenBabel08242015413D

 14 13  0  0  0  0  0  0  0  0999 V2000
   -3.9396    0.2583    0.0330 C   0  0  0  0  0  0  0  0  0  0  0  0
   -2.6886   -0.6089    0.0241 C   0  0  0  0  0  0  0  0  0  0  0  0
   -4.8613   -0.3387   -0.0213 H   0  0  0  0  0  0  0  0  0  0  0  0
   -3.9643    0.8403   -0.8517 H   0  0  0  0  0  0  0  0  0  0  0  0
   -3.9456    0.9300    0.9045 H   0  0  0  0  0  0  0  0  0  0  0  0
   -1.4099    0.1870    0.0091 C   0  0  0  0  0  0  0  0  0  0  0  0
   -2.7456   -1.3531   -0.8861 H   0  0  0  0  0  0  0  0  0  0  0  0
   -2.7157   -1.1631    0.8671 H   0  0  0  0  0  0  0  0  0  0  0  0
   -0.1732   -0.6969    0.0427 C   0  0  0  0  0  0  0  0  0  0  0  0
   -1.3617    0.8887    0.8632 H   0  0  0  0  0  0  0  0  0  0  0  0
   -1.4155    0.8660   -0.9118 H   0  0  0  0  0  0  0  0  0  0  0  0
   -0.0596   -1.4269    1.0139 H   0  0  0  0  0  0  0  0  0  0  0  0
    0.7386   -0.1326   -0.1162 H   0  0  0  0  0  0  0  0  0  0  0  0
   -0.1572   -1.2572   -0.7162 H   0  0  0  0  0  0  0  0  0  0  0  0
  1  5  1  0  0  0  0
  2  1  1  0  0  0  0
  2  8  1  0  0  0  0
  3  1  1  0  0  0  0
  4  1  1  0  0  0  0
  6  2  1  0  0  0  0
  6  9  1  0  0  0  0
  6 10  1  0  0  0  0
  7  2  1  0  0  0  0
  9 12  1  0  0  0  0
 11  6  1  0  0  0  0
 13  9  1  0  0  0  0
 14  9  1  0  0  0  0
M  END
$$$$
