14
butane_opt
C  -3.973442   0.272040   0.062019
C  -2.696550  -0.626357  -0.039650
H  -4.835437  -0.280703   0.222939
H  -4.129191   0.938497  -0.824981
H  -3.872175   0.921887   0.911383
C  -1.398023   0.173555  -0.018519
H  -2.750804  -1.400266  -0.923373
H  -2.599053  -1.232803   0.803762
C  -0.153427  -0.685262   0.076063
H  -1.403968   0.873965   0.822725
H  -1.366530   0.822639  -0.939296
H  -0.116077  -1.454408   1.097207
H   0.881442   0.004193   0.009231
H  -0.192112  -1.246133  -0.685862
