14
butane_opt
C  -3.971615   0.268793  -0.007128
C  -2.696314  -0.617330   0.059866
H  -4.828591  -0.273105  -0.020879
H  -3.999303   1.002475  -0.987740
H  -3.974300   0.893159   0.819902
C  -1.380649   0.169073   0.043926
H  -2.747153  -1.267409  -0.829551
H  -2.757138  -1.295977   1.006680
C  -0.160285  -0.682898   0.005008
H  -1.306432   0.917780   0.977986
H  -1.417985   0.670827  -0.733767
H  -0.051305  -1.346201   0.957245
H   0.808129  -0.079059  -0.150876
H  -0.249997  -1.326246  -0.830427
