butane_opt
 OpenBabel08242015413D

 14 13  0  0  0  0  0  0  0  0999 V2000
   -3.9510    0.2687    0.0344 C   0  0  0  0  0  0  0  0  0  0  0  0
   -2.7021   -0.6159    0.0160 C   0  0  0  0  0  0  0  0  0  0  0  0
   -4.8678   -0.3296   -0.0045 H   0  0  0  0  0  0  0  0  0  0  0  0
   -4.0124    0.8153   -0.7989 H   0  0  0  0  0  0  0  0  0  0  0  0
   -4.0001    1.0295    0.9515 H   0  0  0  0  0  0  0  0  0  0  0  0
   -1.3946    0.1768   -0.0118 C   0  0  0  0  0  0  0  0  0  0  0  0
   -2.7743   -1.3059   -0.8331 H   0  0  0  0  0  0  0  0  0  0  0  0
   -2.7207   -1.2533    0.9092 H   0  0  0  0  0  0  0  0  0  0  0  0
   -0.1521   -0.6973    0.0550 C   0  0  0  0  0  0  0  0  0  0  0  0
   -1.4071    0.8768    0.8443 H   0  0  0  0  0  0  0  0  0  0  0  0
   -1.3373    0.8086   -0.9210 H   0  0  0  0  0  0  0  0  0  0  0  0
   -0.1261   -1.3404    1.0049 H   0  0  0  0  0  0  0  0  0  0  0  0
    0.7642   -0.0889   -0.0736 H   0  0  0  0  0  0  0  0  0  0  0  0
   -0.1409   -1.2716   -0.7559 H   0  0  0  0  0  0  0  0  0  0  0  0
  1  5  1  0  0  0  0
  2  1  1  0  0  0  0
  2  8  1  0  0  0  0
  3  1  1  0  0  0  0
  4  1  1  0  0  0  0
  6  2  1  0  0  0  0
  6  9  1  0  0  0  0
  6 10  1  0  0  0  0
  7  2  1  0  0  0  0
  9 12  1  0  0  0  0
 11  6  1  0  0  0  0
 13  9  1  0  0  0  0
 14  9  1  0  0  0  0
M  END
$$$$
