14
butane_opt
C  -3.927349   0.273669   0.045207
C  -2.698238  -0.627169   0.028460
H  -4.886410  -0.311656  -0.184256
H  -3.918729   0.725783  -0.735993
H  -4.015877   1.114445   1.015167
C  -1.406334   0.178176  -0.037919
H  -2.638018  -1.328294  -0.797472
H  -2.669711  -1.320489   0.970956
C  -0.179009  -0.690581   0.060965
H  -1.423890   0.872424   0.829753
H  -1.338605   0.836260  -0.978896
H  -0.160985  -1.308437   0.941489
H   0.726394  -0.095478   0.003605
H  -0.162212  -1.271880  -0.768536
