14
butane_opt
C  -3.915423   0.244914  -0.021163
C  -2.707652  -0.586564   0.084029
H  -4.865819  -0.352159  -0.122780
H  -3.873135   0.718182  -0.859041
H  -4.046949   1.022886   0.900858
C  -1.411441   0.196770   0.030569
H  -2.688576  -1.175304  -0.717825
H  -2.706441  -1.338170   1.036568
C  -0.173261  -0.715773   0.008568
H  -1.337100   0.947680   0.965488
H  -1.433043   0.810898  -0.883657
H  -0.082438  -1.286912   0.870702
H   0.692836  -0.133164  -0.080967
H  -0.173485  -1.375180  -0.882033
