butane_opt
 OpenBabel08242015413D

 14 13  0  0  0  0  0  0  0  0999 V2000
   -3.9475    0.2883   -0.0252 C   0  0  0  0  0  0  0  0  0  0  0  0
   -2.6825   -0.6427    0.0668 C   0  0  0  0  0  0  0  0  0  0  0  0
   -4.8358   -0.2987   -0.0635 H   0  0  0  0  0  0  0  0  0  0  0  0
   -3.8979    0.9054   -0.9536 H   0  0  0  0  0  0  0  0  0  0  0  0
   -4.0104    0.9901    0.8988 H   0  0  0  0  0  0  0  0  0  0  0  0
   -1.3954    0.1613    0.0738 C   0  0  0  0  0  0  0  0  0  0  0  0
   -2.7173   -1.2208   -0.7305 H   0  0  0  0  0  0  0  0  0  0  0  0
   -2.7364   -1.3484    0.9691 H   0  0  0  0  0  0  0  0  0  0  0  0
   -0.1852   -0.6648   -0.0078 C   0  0  0  0  0  0  0  0  0  0  0  0
   -1.3547    0.8411    0.9208 H   0  0  0  0  0  0  0  0  0  0  0  0
   -1.3596    0.7206   -0.7756 H   0  0  0  0  0  0  0  0  0  0  0  0
    0.0154   -1.3901    0.9068 H   0  0  0  0  0  0  0  0  0  0  0  0
    0.7056   -0.0945   -0.1499 H   0  0  0  0  0  0  0  0  0  0  0  0
   -0.3207   -1.2640   -0.8587 H   0  0  0  0  0  0  0  0  0  0  0  0
  1  2  1  0  0  0  0
  1  5  1  0  0  0  0
  2  6  1  0  0  0  0
  2  8  1  0  0  0  0
  3  1  1  0  0  0  0
  4  1  1  0  0  0  0
  6 10  1  0  0  0  0
  7  2  1  0  0  0  0
  9  6  1  0  0  0  0
  9 12  1  0  0  0  0
 11  6  1  0  0  0  0
 13  9  1  0  0  0  0
 14  9  1  0  0  0  0
M  END
$$$$
