14
butane_opt
C  -3.937395   0.271329  -0.024846
C  -2.680081  -0.633604   0.079312
H  -4.789182  -0.291295  -0.040061
H  -3.918416   0.891525  -0.929749
H  -3.956210   1.010821   0.839674
C  -1.413793   0.159271   0.057188
H  -2.696337  -1.301547  -0.796983
H  -2.795183  -1.215628   0.959002
C  -0.176888  -0.677767  -0.009777
H  -1.356978   0.964215   1.022595
H  -1.438835   0.742078  -0.774265
H  -0.103764  -1.445901   1.003536
H   0.735720  -0.040723  -0.262020
H  -0.224622  -1.209521  -0.792791
