butane_opt
 OpenBabel08242015413D

 14 13  0  0  0  0  0  0  0  0999 V2000
   -3.9472    0.2814   -0.0011 C   0  0  0  0  0  0  0  0  0  0  0  0
   -2.6771   -0.6230    0.0633 C   0  0  0  0  0  0  0  0  0  0  0  0
   -4.8627   -0.3609    0.1130 H   0  0  0  0  0  0  0  0  0  0  0  0
   -4.0609    0.9681   -0.9440 H   0  0  0  0  0  0  0  0  0  0  0  0
   -3.9766    0.8436    0.7780 H   0  0  0  0  0  0  0  0  0  0  0  0
   -1.3941    0.1543    0.0209 C   0  0  0  0  0  0  0  0  0  0  0  0
   -2.7102   -1.2683   -0.7165 H   0  0  0  0  0  0  0  0  0  0  0  0
   -2.6434   -1.2335    0.9324 H   0  0  0  0  0  0  0  0  0  0  0  0
   -0.1814   -0.6777    0.0239 C   0  0  0  0  0  0  0  0  0  0  0  0
   -1.3955    0.8058    0.8687 H   0  0  0  0  0  0  0  0  0  0  0  0
   -1.3549    0.8224   -0.8994 H   0  0  0  0  0  0  0  0  0  0  0  0
   -0.2144   -1.0683    0.7863 H   0  0  0  0  0  0  0  0  0  0  0  0
    0.7304   -0.0618    0.1359 H   0  0  0  0  0  0  0  0  0  0  0  0
   -0.1358   -1.5430   -0.9419 H   0  0  0  0  0  0  0  0  0  0  0  0
  1  2  1  0  0  0  0
  1  3  1  0  0  0  0
  1  5  1  0  0  0  0
  2  8  1  0  0  0  0
  4  1  1  0  0  0  0
  6  9  1  0  0  0  0
  6  2  1  0  0  0  0
  6 10  1  0  0  0  0
  7  2  1  0  0  0  0
  9 13  1  0  0  0  0
  9 12  1  0  0  0  0
 11  6  1  0  0  0  0
 14  9  1  0  0  0  0
M  END
$$$$
