butane_opt
 OpenBabel08242015413D

 14 13  0  0  0  0  0  0  0  0999 V2000
   -3.9716    0.2688   -0.0071 C   0  0  0  0  0  0  0  0  0  0  0  0
   -2.6963   -0.6173    0.0599 C   0  0  0  0  0  0  0  0  0  0  0  0
   -4.8286   -0.2731   -0.0209 H   0  0  0  0  0  0  0  0  0  0  0  0
   -3.9993    1.0025   -0.9877 H   0  0  0  0  0  0  0  0  0  0  0  0
   -3.9743    0.8932    0.8199 H   0  0  0  0  0  0  0  0  0  0  0  0
   -1.3806    0.1691    0.0439 C   0  0  0  0  0  0  0  0  0  0  0  0
   -2.7472   -1.2674   -0.8296 H   0  0  0  0  0  0  0  0  0  0  0  0
   -2.7571   -1.2960    1.0067 H   0  0  0  0  0  0  0  0  0  0  0  0
   -0.1603   -0.6829    0.0050 C   0  0  0  0  0  0  0  0  0  0  0  0
   -1.3064    0.9178    0.9780 H   0  0  0  0  0  0  0  0  0  0  0  0
   -1.4180    0.6708   -0.7338 H   0  0  0  0  0  0  0  0  0  0  0  0
   -0.0513   -1.3462    0.9572 H   0  0  0  0  0  0  0  0  0  0  0  0
    0.8081   -0.0791   -0.1509 H   0  0  0  0  0  0  0  0  0  0  0  0
   -0.2500   -1.3262   -0.8304 H   0  0  0  0  0  0  0  0  0  0  0  0
  1  2  1  0  0  0  0
  1  5  1  0  0  0  0
  2  8  1  0  0  0  0
  3  1  1  0  0  0  0
  4  1  1  0  0  0  0
  6  2  1  0  0  0  0
  6 10  1  0  0  0  0
  7  2  1  0  0  0  0
  9  6  1  0  0  0  0
  9 12  1  0  0  0  0
 11  6  1  0  0  0  0
 13  9  1  0  0  0  0
 14  9  1  0  0  0  0
M  END
$$$$
