14
butane_opt
C  -3.947240   0.281372  -0.001099
C  -2.677056  -0.622983   0.063323
H  -4.862741  -0.360927   0.112988
H  -4.060904   0.968101  -0.944034
H  -3.976572   0.843591   0.777966
C  -1.394074   0.154348   0.020868
H  -2.710214  -1.268346  -0.716510
H  -2.643369  -1.233521   0.932388
C  -0.181357  -0.677704   0.023925
H  -1.395475   0.805762   0.868662
H  -1.354917   0.822439  -0.899382
H  -0.214400  -1.068292   0.786321
H   0.730438  -0.061768   0.135883
H  -0.135835  -1.543039  -0.941897
