butane_opt
 OpenBabel08242015413D

 14 13  0  0  0  0  0  0  0  0999 V2000
   -3.9374    0.2713   -0.0248 C   0  0  0  0  0  0  0  0  0  0  0  0
   -2.6801   -0.6336    0.0793 C   0  0  0  0  0  0  0  0  0  0  0  0
   -4.7892   -0.2913   -0.0401 H   0  0  0  0  0  0  0  0  0  0  0  0
   -3.9184    0.8915   -0.9297 H   0  0  0  0  0  0  0  0  0  0  0  0
   -3.9562    1.0108    0.8397 H   0  0  0  0  0  0  0  0  0  0  0  0
   -1.4138    0.1593    0.0572 C   0  0  0  0  0  0  0  0  0  0  0  0
   -2.6963   -1.3015   -0.7970 H   0  0  0  0  0  0  0  0  0  0  0  0
   -2.7952   -1.2156    0.9590 H   0  0  0  0  0  0  0  0  0  0  0  0
   -0.1769   -0.6778   -0.0098 C   0  0  0  0  0  0  0  0  0  0  0  0
   -1.3570    0.9642    1.0226 H   0  0  0  0  0  0  0  0  0  0  0  0
   -1.4388    0.7421   -0.7743 H   0  0  0  0  0  0  0  0  0  0  0  0
   -0.1038   -1.4459    1.0035 H   0  0  0  0  0  0  0  0  0  0  0  0
    0.7357   -0.0407   -0.2620 H   0  0  0  0  0  0  0  0  0  0  0  0
   -0.2246   -1.2095   -0.7928 H   0  0  0  0  0  0  0  0  0  0  0  0
  1  2  1  0  0  0  0
  1  5  1  0  0  0  0
  2  8  1  0  0  0  0
  3  1  1  0  0  0  0
  4  1  1  0  0  0  0
  6  2  1  0  0  0  0
  6 10  1  0  0  0  0
  7  2  1  0  0  0  0
  9  6  1  0  0  0  0
  9 12  1  0  0  0  0
 11  6  1  0  0  0  0
 13  9  1  0  0  0  0
 14  9  1  0  0  0  0
M  END
$$$$
