14
butane_opt
C  -3.967581   0.291259  -0.042478
C  -2.695813  -0.643998   0.104385
H  -4.859496  -0.276188  -0.186506
H  -3.863262   0.731405  -0.816563
H  -4.111573   1.074451   0.910440
C  -1.389581   0.164326   0.067349
H  -2.633207  -1.216032  -0.643755
H  -2.729340  -1.304235   1.023694
C  -0.174023  -0.688393  -0.022482
H  -1.270943   0.802304   0.855947
H  -1.360914   0.862129  -0.875708
H  -0.110195  -1.233253   0.819101
H   0.845065  -0.039659  -0.043598
H  -0.215849  -1.347076  -0.866692
