butane_opt
 OpenBabel08242015413D

 14 13  0  0  0  0  0  0  0  0999 V2000
   -3.9273    0.2716   -0.0257 C   0  0  0  0  0  0  0  0  0  0  0  0
   -2.6978   -0.6179    0.0889 C   0  0  0  0  0  0  0  0  0  0  0  0
   -4.8524   -0.3907    0.0244 H   0  0  0  0  0  0  0  0  0  0  0  0
   -3.8928    0.9959   -1.0003 H   0  0  0  0  0  0  0  0  0  0  0  0
   -3.9248    0.7453    0.7274 H   0  0  0  0  0  0  0  0  0  0  0  0
   -1.4186    0.2056    0.0683 C   0  0  0  0  0  0  0  0  0  0  0  0
   -2.7098   -1.2560   -0.7334 H   0  0  0  0  0  0  0  0  0  0  0  0
   -2.7537   -1.2465    0.9766 H   0  0  0  0  0  0  0  0  0  0  0  0
   -0.1786   -0.7017   -0.0218 C   0  0  0  0  0  0  0  0  0  0  0  0
   -1.2926    0.8663    0.9631 H   0  0  0  0  0  0  0  0  0  0  0  0
   -1.4846    0.7752   -0.7746 H   0  0  0  0  0  0  0  0  0  0  0  0
   -0.1157   -1.2754    0.8616 H   0  0  0  0  0  0  0  0  0  0  0  0
    0.7658   -0.0995    0.0361 H   0  0  0  0  0  0  0  0  0  0  0  0
   -0.1108   -1.4708   -0.9808 H   0  0  0  0  0  0  0  0  0  0  0  0
  1  3  1  0  0  0  0
  1  2  1  0  0  0  0
  1  5  1  0  0  0  0
  2  8  1  0  0  0  0
  4  1  1  0  0  0  0
  6  2  1  0  0  0  0
  6 10  1  0  0  0  0
  7  2  1  0  0  0  0
  9 13  1  0  0  0  0
  9  6  1  0  0  0  0
  9 12  1  0  0  0  0
 11  6  1  0  0  0  0
 14  9  1  0  0  0  0
M  END
$$$$
