14
butane_opt
C  -3.927342   0.271648  -0.025667
C  -2.697763  -0.617928   0.088946
H  -4.852382  -0.390664   0.024360
H  -3.892832   0.995878  -1.000333
H  -3.924767   0.745271   0.727358
C  -1.418582   0.205629   0.068263
H  -2.709802  -1.256043  -0.733431
H  -2.753744  -1.246516   0.976637
C  -0.178603  -0.701741  -0.021788
H  -1.292613   0.866320   0.963114
H  -1.484574   0.775238  -0.774622
H  -0.115720  -1.275417   0.861627
H   0.765846  -0.099474   0.036082
H  -0.110753  -1.470829  -0.980756
