butane_opt
 OpenBabel08242015413D

 14 13  0  0  0  0  0  0  0  0999 V2000
   -3.9146    0.2498   -0.0237 C   0  0  0  0  0  0  0  0  0  0  0  0
   -2.7085   -0.5931    0.0957 C   0  0  0  0  0  0  0  0  0  0  0  0
   -4.9074   -0.3597    0.0384 H   0  0  0  0  0  0  0  0  0  0  0  0
   -3.8250    0.8814   -0.9737 H   0  0  0  0  0  0  0  0  0  0  0  0
   -3.9749    0.8998    0.8116 H   0  0  0  0  0  0  0  0  0  0  0  0
   -1.4257    0.2058    0.0246 C   0  0  0  0  0  0  0  0  0  0  0  0
   -2.6615   -1.1155   -0.6737 H   0  0  0  0  0  0  0  0  0  0  0  0
   -2.8033   -1.3581    1.0971 H   0  0  0  0  0  0  0  0  0  0  0  0
   -0.1510   -0.7115   -0.0021 C   0  0  0  0  0  0  0  0  0  0  0  0
   -1.4111    0.8910    0.8969 H   0  0  0  0  0  0  0  0  0  0  0  0
   -1.3986    0.7107   -0.7941 H   0  0  0  0  0  0  0  0  0  0  0  0
   -0.2022   -1.1152    0.7496 H   0  0  0  0  0  0  0  0  0  0  0  0
    0.7492   -0.1183    0.1747 H   0  0  0  0  0  0  0  0  0  0  0  0
   -0.1761   -1.6158   -1.0384 H   0  0  0  0  0  0  0  0  0  0  0  0
  1  3  1  0  0  0  0
  1  2  1  0  0  0  0
  1  5  1  0  0  0  0
  2  8  1  0  0  0  0
  4  1  1  0  0  0  0
  6  2  1  0  0  0  0
  6 10  1  0  0  0  0
  7  2  1  0  0  0  0
  9  6  1  0  0  0  0
  9 13  1  0  0  0  0
  9 12  1  0  0  0  0
 11  6  1  0  0  0  0
 14  9  1  0  0  0  0
M  END
$$$$
