butane_opt
 OpenBabel08242015413D

 14 13  0  0  0  0  0  0  0  0999 V2000
   -3.9222    0.2602   -0.0068 C   0  0  0  0  0  0  0  0  0  0  0  0
   -2.6826   -0.6158    0.0765 C   0  0  0  0  0  0  0  0  0  0  0  0
   -4.8828   -0.4140    0.0809 H   0  0  0  0  0  0  0  0  0  0  0  0
   -3.9438    0.9910   -0.9583 H   0  0  0  0  0  0  0  0  0  0  0  0
   -3.9528    0.7899    0.8028 H   0  0  0  0  0  0  0  0  0  0  0  0
   -1.4181    0.1976    0.0212 C   0  0  0  0  0  0  0  0  0  0  0  0
   -2.7021   -1.2095   -0.7536 H   0  0  0  0  0  0  0  0  0  0  0  0
   -2.7370   -1.2780    1.0051 H   0  0  0  0  0  0  0  0  0  0  0  0
   -0.1823   -0.7030    0.0189 C   0  0  0  0  0  0  0  0  0  0  0  0
   -1.3902    0.8845    0.8757 H   0  0  0  0  0  0  0  0  0  0  0  0
   -1.4107    0.9211   -0.9131 H   0  0  0  0  0  0  0  0  0  0  0  0
   -0.0997   -1.0769    0.7434 H   0  0  0  0  0  0  0  0  0  0  0  0
    0.7198   -0.1233    0.2507 H   0  0  0  0  0  0  0  0  0  0  0  0
   -0.1517   -1.6476   -1.0430 H   0  0  0  0  0  0  0  0  0  0  0  0
  1  2  1  0  0  0  0
  1  3  1  0  0  0  0
  1  5  1  0  0  0  0
  2  8  1  0  0  0  0
  4  1  1  0  0  0  0
  6  2  1  0  0  0  0
  6 10  1  0  0  0  0
  7  2  1  0  0  0  0
  9  6  1  0  0  0  0
  9 13  1  0  0  0  0
  9 12  1  0  0  0  0
 11  6  1  0  0  0  0
 14  9  1  0  0  0  0
M  END
$$$$
