butane_opt
 OpenBabel08242015413D

 14 13  0  0  0  0  0  0  0  0999 V2000
   -3.9316    0.2642   -0.0261 C   0  0  0  0  0  0  0  0  0  0  0  0
   -2.6860   -0.6269    0.0962 C   0  0  0  0  0  0  0  0  0  0  0  0
   -4.8518   -0.3134   -0.1040 H   0  0  0  0  0  0  0  0  0  0  0  0
   -3.8914    0.9343   -0.9420 H   0  0  0  0  0  0  0  0  0  0  0  0
   -4.1072    0.9274    0.7922 H   0  0  0  0  0  0  0  0  0  0  0  0
   -1.4066    0.1721    0.0638 C   0  0  0  0  0  0  0  0  0  0  0  0
   -2.6093   -1.2668   -0.7222 H   0  0  0  0  0  0  0  0  0  0  0  0
   -2.6905   -1.2381    0.9269 H   0  0  0  0  0  0  0  0  0  0  0  0
   -0.1914   -0.6791   -0.0076 C   0  0  0  0  0  0  0  0  0  0  0  0
   -1.3407    0.9241    0.9774 H   0  0  0  0  0  0  0  0  0  0  0  0
   -1.4060    0.7603   -0.7908 H   0  0  0  0  0  0  0  0  0  0  0  0
   -0.0214   -1.3221    0.8996 H   0  0  0  0  0  0  0  0  0  0  0  0
    0.7328   -0.1123   -0.2148 H   0  0  0  0  0  0  0  0  0  0  0  0
   -0.2513   -1.3329   -0.9006 H   0  0  0  0  0  0  0  0  0  0  0  0
  1  2  1  0  0  0  0
  1  5  1  0  0  0  0
  2  8  1  0  0  0  0
  3  1  1  0  0  0  0
  4  1  1  0  0  0  0
  6  2  1  0  0  0  0
  6 10  1  0  0  0  0
  7  2  1  0  0  0  0
  9  6  1  0  0  0  0
  9 12  1  0  0  0  0
 11  6  1  0  0  0  0
 13  9  1  0  0  0  0
 14  9  1  0  0  0  0
M  END
$$$$
