butane_opt
 OpenBabel08242015413D

 14 13  0  0  0  0  0  0  0  0999 V2000
   -3.9543    0.2716    0.0589 C   0  0  0  0  0  0  0  0  0  0  0  0
   -2.6871   -0.6135   -0.0017 C   0  0  0  0  0  0  0  0  0  0  0  0
   -4.8292   -0.3027   -0.0796 H   0  0  0  0  0  0  0  0  0  0  0  0
   -4.0339    0.7406   -0.6987 H   0  0  0  0  0  0  0  0  0  0  0  0
   -3.9079    1.1245    1.0191 H   0  0  0  0  0  0  0  0  0  0  0  0
   -1.4003    0.1598   -0.0390 C   0  0  0  0  0  0  0  0  0  0  0  0
   -2.6815   -1.3251   -0.8566 H   0  0  0  0  0  0  0  0  0  0  0  0
   -2.7094   -1.2613    0.9307 H   0  0  0  0  0  0  0  0  0  0  0  0
   -0.1830   -0.6843    0.0726 C   0  0  0  0  0  0  0  0  0  0  0  0
   -1.3779    0.7780    0.7821 H   0  0  0  0  0  0  0  0  0  0  0  0
   -1.2721    0.8463   -1.0330 H   0  0  0  0  0  0  0  0  0  0  0  0
   -0.2067   -1.3605    0.9771 H   0  0  0  0  0  0  0  0  0  0  0  0
    0.7721   -0.0615    0.0511 H   0  0  0  0  0  0  0  0  0  0  0  0
   -0.0873   -1.2432   -0.7232 H   0  0  0  0  0  0  0  0  0  0  0  0
  1  5  1  0  0  0  0
  2  1  1  0  0  0  0
  2  8  1  0  0  0  0
  3  1  1  0  0  0  0
  4  1  1  0  0  0  0
  6  2  1  0  0  0  0
  6  9  1  0  0  0  0
  6 10  1  0  0  0  0
  7  2  1  0  0  0  0
  9 12  1  0  0  0  0
 11  6  1  0  0  0  0
 13  9  1  0  0  0  0
 14  9  1  0  0  0  0
M  END
$$$$
