14
butane_opt
C  -3.940873   0.242947   0.043450
C  -2.735386  -0.612803   0.014175
H  -4.803359  -0.305091  -0.033204
H  -3.916934   0.784819  -0.812320
H  -3.955242   0.998737   0.961445
C  -1.408433   0.224970  -0.001104
H  -2.764228  -1.335604  -0.895096
H  -2.735880  -1.122289   0.845354
C  -0.136555  -0.722479   0.045816
H  -1.431748   0.862726   0.833028
H  -1.367715   0.901112  -0.911504
H  -0.085209  -1.461217   1.051948
H   0.749076  -0.182554  -0.149207
H  -0.054931  -1.205449  -0.662945
