14
butane_opt
C  -3.939364   0.270626  -0.018451
C  -2.691044  -0.618354   0.080835
H  -4.840383  -0.325757  -0.050065
H  -3.899745   0.860375  -0.894735
H  -3.990134   1.019441   0.886703
C  -1.403929   0.165317   0.033068
H  -2.739668  -1.244647  -0.729612
H  -2.732389  -1.270486   0.986657
C  -0.173077  -0.687055   0.000496
H  -1.337739   0.882266   0.906917
H  -1.438006   0.739734  -0.842714
H  -0.142089  -1.295875   0.899456
H   0.752991  -0.056249   0.003667
H  -0.176771  -1.342935  -0.869907
