butane_opt
 OpenBabel08242015413D

 14 13  0  0  0  0  0  0  0  0999 V2000
   -3.9543    0.2731    0.0448 C   0  0  0  0  0  0  0  0  0  0  0  0
   -2.6972   -0.6252   -0.0022 C   0  0  0  0  0  0  0  0  0  0  0  0
   -4.8781   -0.3086    0.1628 H   0  0  0  0  0  0  0  0  0  0  0  0
   -4.0765    0.9664   -0.8784 H   0  0  0  0  0  0  0  0  0  0  0  0
   -3.9662    0.9093    0.8789 H   0  0  0  0  0  0  0  0  0  0  0  0
   -1.3921    0.1745   -0.0109 C   0  0  0  0  0  0  0  0  0  0  0  0
   -2.8021   -1.2923   -0.8485 H   0  0  0  0  0  0  0  0  0  0  0  0
   -2.6715   -1.2570    0.8614 H   0  0  0  0  0  0  0  0  0  0  0  0
   -0.1526   -0.6895    0.0547 C   0  0  0  0  0  0  0  0  0  0  0  0
   -1.3885    0.8510    0.8415 H   0  0  0  0  0  0  0  0  0  0  0  0
   -1.3455    0.7718   -0.8881 H   0  0  0  0  0  0  0  0  0  0  0  0
   -0.1836   -1.3245    0.9551 H   0  0  0  0  0  0  0  0  0  0  0  0
    0.7820   -0.0571    0.0968 H   0  0  0  0  0  0  0  0  0  0  0  0
   -0.1364   -1.3203   -0.7816 H   0  0  0  0  0  0  0  0  0  0  0  0
  1  3  1  0  0  0  0
  1  5  1  0  0  0  0
  2  1  1  0  0  0  0
  2  8  1  0  0  0  0
  4  1  1  0  0  0  0
  6  2  1  0  0  0  0
  6  9  1  0  0  0  0
  6 10  1  0  0  0  0
  7  2  1  0  0  0  0
  9 13  1  0  0  0  0
  9 12  1  0  0  0  0
 11  6  1  0  0  0  0
 14  9  1  0  0  0  0
M  END
$$$$
