14
butane_opt
C  -3.977734   0.284416  -0.029882
C  -2.705004  -0.633389   0.100409
H  -4.815600  -0.252762   0.130165
H  -3.956502   0.957557  -0.965385
H  -3.981994   0.869729   0.837077
C  -1.397018   0.167433   0.016911
H  -2.652196  -1.311914  -0.736344
H  -2.704411  -1.391287   1.082328
C  -0.140237  -0.677157  -0.009180
H  -1.394672   0.904880   0.930831
H  -1.408279   0.708301  -0.852562
H  -0.279561  -1.056175   0.755411
H   0.824842  -0.035545   0.272673
H  -0.036801  -1.533952  -0.981129
