butane_opt
 OpenBabel08242015413D

 14 13  0  0  0  0  0  0  0  0999 V2000
   -3.9587    0.2691    0.0411 C   0  0  0  0  0  0  0  0  0  0  0  0
   -2.6953   -0.6406   -0.0101 C   0  0  0  0  0  0  0  0  0  0  0  0
   -4.8723   -0.3257    0.0037 H   0  0  0  0  0  0  0  0  0  0  0  0
   -4.0747    0.8196   -0.7672 H   0  0  0  0  0  0  0  0  0  0  0  0
   -4.0210    1.0362    0.9148 H   0  0  0  0  0  0  0  0  0  0  0  0
   -1.3832    0.1939   -0.0049 C   0  0  0  0  0  0  0  0  0  0  0  0
   -2.7311   -1.2785   -0.8454 H   0  0  0  0  0  0  0  0  0  0  0  0
   -2.6605   -1.2658    0.8829 H   0  0  0  0  0  0  0  0  0  0  0  0
   -0.1535   -0.6900    0.0699 C   0  0  0  0  0  0  0  0  0  0  0  0
   -1.4133    0.9089    0.8883 H   0  0  0  0  0  0  0  0  0  0  0  0
   -1.4068    0.7783   -0.8919 H   0  0  0  0  0  0  0  0  0  0  0  0
   -0.0478   -1.4082    1.0312 H   0  0  0  0  0  0  0  0  0  0  0  0
    0.7141   -0.1448   -0.2500 H   0  0  0  0  0  0  0  0  0  0  0  0
   -0.2098   -1.1842   -0.6654 H   0  0  0  0  0  0  0  0  0  0  0  0
  1  5  1  0  0  0  0
  2  6  1  0  0  0  0
  2  1  1  0  0  0  0
  2  8  1  0  0  0  0
  3  1  1  0  0  0  0
  4  1  1  0  0  0  0
  6  9  1  0  0  0  0
  6 10  1  0  0  0  0
  7  2  1  0  0  0  0
  9 12  1  0  0  0  0
 11  6  1  0  0  0  0
 13  9  1  0  0  0  0
 14  9  1  0  0  0  0
M  END
$$$$
