14
butane_opt
C  -3.924230   0.261345  -0.018843
C  -2.695154  -0.614812   0.082903
H  -4.909502  -0.377349   0.117455
H  -3.888497   0.910437  -0.894719
H  -3.897571   0.861087   0.816232
C  -1.414351   0.201744   0.011238
H  -2.680799  -1.202430  -0.667011
H  -2.800536  -1.265202   1.004295
C  -0.183679  -0.703167   0.011396
H  -1.349321   0.913590   0.879324
H  -1.453935   0.805976  -0.885535
H  -0.162109  -1.124127   0.752917
H   0.709263  -0.110263   0.232273
H   0.006627  -1.637150  -0.974653
