butane_opt
 OpenBabel08242015413D

 14 13  0  0  0  0  0  0  0  0999 V2000
   -3.9449    0.2360    0.0737 C   0  0  0  0  0  0  0  0  0  0  0  0
   -2.7005   -0.5740   -0.0229 C   0  0  0  0  0  0  0  0  0  0  0  0
   -4.8621   -0.3701    0.0271 H   0  0  0  0  0  0  0  0  0  0  0  0
   -3.8395    0.7536   -0.7843 H   0  0  0  0  0  0  0  0  0  0  0  0
   -3.9504    0.9992    1.0095 H   0  0  0  0  0  0  0  0  0  0  0  0
   -1.4110    0.2013   -0.0458 C   0  0  0  0  0  0  0  0  0  0  0  0
   -2.7047   -1.2804   -0.9009 H   0  0  0  0  0  0  0  0  0  0  0  0
   -2.6649   -1.2096    0.8707 H   0  0  0  0  0  0  0  0  0  0  0  0
   -0.1612   -0.7114    0.0778 C   0  0  0  0  0  0  0  0  0  0  0  0
   -1.4649    0.8385    0.7784 H   0  0  0  0  0  0  0  0  0  0  0  0
   -1.3681    0.8215   -0.8790 H   0  0  0  0  0  0  0  0  0  0  0  0
   -0.1265   -1.4626    1.0627 H   0  0  0  0  0  0  0  0  0  0  0  0
    0.6887   -0.1138   -0.0396 H   0  0  0  0  0  0  0  0  0  0  0  0
   -0.1103   -1.2768   -0.6743 H   0  0  0  0  0  0  0  0  0  0  0  0
  1  5  1  0  0  0  0
  2  1  1  0  0  0  0
  2  8  1  0  0  0  0
  3  1  1  0  0  0  0
  4  1  1  0  0  0  0
  6  2  1  0  0  0  0
  6  9  1  0  0  0  0
  6 10  1  0  0  0  0
  7  2  1  0  0  0  0
  9 12  1  0  0  0  0
 11  6  1  0  0  0  0
 13  9  1  0  0  0  0
 14  9  1  0  0  0  0
M  END
$$$$
