14
butane_opt
C  -3.958711   0.269073   0.041121
C  -2.695330  -0.640642  -0.010090
H  -4.872344  -0.325747   0.003707
H  -4.074703   0.819565  -0.767195
H  -4.020960   1.036242   0.914792
C  -1.383189   0.193881  -0.004906
H  -2.731112  -1.278529  -0.845351
H  -2.660522  -1.265781   0.882898
C  -0.153472  -0.690018   0.069934
H  -1.413277   0.908869   0.888298
H  -1.406772   0.778301  -0.891884
H  -0.047836  -1.408168   1.031179
H   0.714073  -0.144777  -0.250016
H  -0.209843  -1.184173  -0.665411
