butane_opt
 OpenBabel08242015413D

 14 13  0  0  0  0  0  0  0  0999 V2000
   -3.9403    0.2776   -0.0312 C   0  0  0  0  0  0  0  0  0  0  0  0
   -2.6859   -0.6310    0.0684 C   0  0  0  0  0  0  0  0  0  0  0  0
   -4.8835   -0.3642    0.1030 H   0  0  0  0  0  0  0  0  0  0  0  0
   -4.0359    1.0492   -0.9994 H   0  0  0  0  0  0  0  0  0  0  0  0
   -3.8380    0.8488    0.7769 H   0  0  0  0  0  0  0  0  0  0  0  0
   -1.4158    0.1681    0.0762 C   0  0  0  0  0  0  0  0  0  0  0  0
   -2.6356   -1.2166   -0.7282 H   0  0  0  0  0  0  0  0  0  0  0  0
   -2.8036   -1.2871    0.9953 H   0  0  0  0  0  0  0  0  0  0  0  0
   -0.1548   -0.6796   -0.0217 C   0  0  0  0  0  0  0  0  0  0  0  0
   -1.4047    0.8812    0.9584 H   0  0  0  0  0  0  0  0  0  0  0  0
   -1.3966    0.7320   -0.7245 H   0  0  0  0  0  0  0  0  0  0  0  0
   -0.1843   -1.2934    0.8568 H   0  0  0  0  0  0  0  0  0  0  0  0
    0.7678   -0.0822   -0.0248 H   0  0  0  0  0  0  0  0  0  0  0  0
   -0.2450   -1.3586   -0.8969 H   0  0  0  0  0  0  0  0  0  0  0  0
  1  2  1  0  0  0  0
  1  3  1  0  0  0  0
  1  5  1  0  0  0  0
  2  6  1  0  0  0  0
  2  8  1  0  0  0  0
  4  1  1  0  0  0  0
  6 10  1  0  0  0  0
  7  2  1  0  0  0  0
  9  6  1  0  0  0  0
  9 12  1  0  0  0  0
 11  6  1  0  0  0  0
 13  9  1  0  0  0  0
 14  9  1  0  0  0  0
M  END
$$$$
