butane_opt
 OpenBabel08242015413D

 14 13  0  0  0  0  0  0  0  0999 V2000
   -3.9777    0.2844   -0.0299 C   0  0  0  0  0  0  0  0  0  0  0  0
   -2.7050   -0.6334    0.1004 C   0  0  0  0  0  0  0  0  0  0  0  0
   -4.8156   -0.2528    0.1302 H   0  0  0  0  0  0  0  0  0  0  0  0
   -3.9565    0.9576   -0.9654 H   0  0  0  0  0  0  0  0  0  0  0  0
   -3.9820    0.8697    0.8371 H   0  0  0  0  0  0  0  0  0  0  0  0
   -1.3970    0.1674    0.0169 C   0  0  0  0  0  0  0  0  0  0  0  0
   -2.6522   -1.3119   -0.7363 H   0  0  0  0  0  0  0  0  0  0  0  0
   -2.7044   -1.3913    1.0823 H   0  0  0  0  0  0  0  0  0  0  0  0
   -0.1402   -0.6772   -0.0092 C   0  0  0  0  0  0  0  0  0  0  0  0
   -1.3947    0.9049    0.9308 H   0  0  0  0  0  0  0  0  0  0  0  0
   -1.4083    0.7083   -0.8526 H   0  0  0  0  0  0  0  0  0  0  0  0
   -0.2796   -1.0562    0.7554 H   0  0  0  0  0  0  0  0  0  0  0  0
    0.8248   -0.0355    0.2727 H   0  0  0  0  0  0  0  0  0  0  0  0
   -0.0368   -1.5340   -0.9811 H   0  0  0  0  0  0  0  0  0  0  0  0
  1  2  1  0  0  0  0
  1  3  1  0  0  0  0
  1  5  1  0  0  0  0
  2  8  1  0  0  0  0
  4  1  1  0  0  0  0
  6  2  1  0  0  0  0
  6 10  1  0  0  0  0
  7  2  1  0  0  0  0
  9  6  1  0  0  0  0
  9 13  1  0  0  0  0
  9 12  1  0  0  0  0
 11  6  1  0  0  0  0
 14  9  1  0  0  0  0
M  END
$$$$
