butane_opt
 OpenBabel08242015413D

 14 13  0  0  0  0  0  0  0  0999 V2000
   -3.9478    0.2489    0.0547 C   0  0  0  0  0  0  0  0  0  0  0  0
   -2.7366   -0.6043   -0.0206 C   0  0  0  0  0  0  0  0  0  0  0  0
   -4.8573   -0.3698    0.0383 H   0  0  0  0  0  0  0  0  0  0  0  0
   -3.9264    0.8555   -0.8609 H   0  0  0  0  0  0  0  0  0  0  0  0
   -3.8878    0.9738    0.9713 H   0  0  0  0  0  0  0  0  0  0  0  0
   -1.4064    0.2084   -0.0032 C   0  0  0  0  0  0  0  0  0  0  0  0
   -2.7085   -1.2609   -0.8291 H   0  0  0  0  0  0  0  0  0  0  0  0
   -2.7730   -1.1949    0.8627 H   0  0  0  0  0  0  0  0  0  0  0  0
   -0.1270   -0.7171    0.0543 C   0  0  0  0  0  0  0  0  0  0  0  0
   -1.4693    0.9181    0.8405 H   0  0  0  0  0  0  0  0  0  0  0  0
   -1.3769    0.8325   -0.8774 H   0  0  0  0  0  0  0  0  0  0  0  0
    0.0052   -1.5030    1.0534 H   0  0  0  0  0  0  0  0  0  0  0  0
    0.7841   -0.1119   -0.1067 H   0  0  0  0  0  0  0  0  0  0  0  0
   -0.2008   -1.2375   -0.6491 H   0  0  0  0  0  0  0  0  0  0  0  0
  1  5  1  0  0  0  0
  2  6  1  0  0  0  0
  2  1  1  0  0  0  0
  2  8  1  0  0  0  0
  3  1  1  0  0  0  0
  4  1  1  0  0  0  0
  6  9  1  0  0  0  0
  6 10  1  0  0  0  0
  7  2  1  0  0  0  0
  9 12  1  0  0  0  0
 11  6  1  0  0  0  0
 13  9  1  0  0  0  0
 14  9  1  0  0  0  0
M  END
$$$$
