butane_opt
 OpenBabel08242015413D

 14 13  0  0  0  0  0  0  0  0999 V2000
   -3.9892    0.2840    0.0819 C   0  0  0  0  0  0  0  0  0  0  0  0
   -2.6760   -0.6430   -0.0181 C   0  0  0  0  0  0  0  0  0  0  0  0
   -4.8606   -0.2958    0.0686 H   0  0  0  0  0  0  0  0  0  0  0  0
   -4.0249    0.8625   -0.7667 H   0  0  0  0  0  0  0  0  0  0  0  0
   -3.9282    0.9914    0.9707 H   0  0  0  0  0  0  0  0  0  0  0  0
   -1.3853    0.1720   -0.0604 C   0  0  0  0  0  0  0  0  0  0  0  0
   -2.7683   -1.3151   -0.8542 H   0  0  0  0  0  0  0  0  0  0  0  0
   -2.5984   -1.2438    0.8532 H   0  0  0  0  0  0  0  0  0  0  0  0
   -0.1659   -0.6766    0.0927 C   0  0  0  0  0  0  0  0  0  0  0  0
   -1.4419    0.6773    0.6549 H   0  0  0  0  0  0  0  0  0  0  0  0
   -1.2844    0.9099   -1.0606 H   0  0  0  0  0  0  0  0  0  0  0  0
   -0.2317   -1.1671    0.9689 H   0  0  0  0  0  0  0  0  0  0  0  0
    0.7774   -0.0210    0.3026 H   0  0  0  0  0  0  0  0  0  0  0  0
   -0.0817   -1.5041   -0.8638 H   0  0  0  0  0  0  0  0  0  0  0  0
  1  5  1  0  0  0  0
  2  1  1  0  0  0  0
  2  8  1  0  0  0  0
  3  1  1  0  0  0  0
  4  1  1  0  0  0  0
  6  2  1  0  0  0  0
  6  9  1  0  0  0  0
  6 10  1  0  0  0  0
  7  2  1  0  0  0  0
  9 13  1  0  0  0  0
  9 12  1  0  0  0  0
 11  6  1  0  0  0  0
 14  9  1  0  0  0  0
M  END
$$$$
