14
butane_opt
C  -3.989205   0.284000   0.081909
C  -2.676000  -0.642987  -0.018105
H  -4.860633  -0.295841   0.068625
H  -4.024875   0.862542  -0.766669
H  -3.928219   0.991362   0.970727
C  -1.385332   0.172016  -0.060410
H  -2.768305  -1.315079  -0.854165
H  -2.598444  -1.243827   0.853183
C  -0.165881  -0.676599   0.092709
H  -1.441938   0.677346   0.654903
H  -1.284392   0.909932  -1.060608
H  -0.231710  -1.167138   0.968934
H   0.777413  -0.020956   0.302630
H  -0.081719  -1.504062  -0.863794
