butane_opt
 OpenBabel08242015413D

 14 13  0  0  0  0  0  0  0  0999 V2000
   -3.9242    0.2613   -0.0188 C   0  0  0  0  0  0  0  0  0  0  0  0
   -2.6952   -0.6148    0.0829 C   0  0  0  0  0  0  0  0  0  0  0  0
   -4.9095   -0.3773    0.1175 H   0  0  0  0  0  0  0  0  0  0  0  0
   -3.8885    0.9104   -0.8947 H   0  0  0  0  0  0  0  0  0  0  0  0
   -3.8976    0.8611    0.8162 H   0  0  0  0  0  0  0  0  0  0  0  0
   -1.4144    0.2017    0.0112 C   0  0  0  0  0  0  0  0  0  0  0  0
   -2.6808   -1.2024   -0.6670 H   0  0  0  0  0  0  0  0  0  0  0  0
   -2.8005   -1.2652    1.0043 H   0  0  0  0  0  0  0  0  0  0  0  0
   -0.1837   -0.7032    0.0114 C   0  0  0  0  0  0  0  0  0  0  0  0
   -1.3493    0.9136    0.8793 H   0  0  0  0  0  0  0  0  0  0  0  0
   -1.4539    0.8060   -0.8855 H   0  0  0  0  0  0  0  0  0  0  0  0
   -0.1621   -1.1241    0.7529 H   0  0  0  0  0  0  0  0  0  0  0  0
    0.7093   -0.1103    0.2323 H   0  0  0  0  0  0  0  0  0  0  0  0
    0.0066   -1.6372   -0.9747 H   0  0  0  0  0  0  0  0  0  0  0  0
  1  2  1  0  0  0  0
  1  3  1  0  0  0  0
  1  5  1  0  0  0  0
  2  8  1  0  0  0  0
  4  1  1  0  0  0  0
  6  9  1  0  0  0  0
  6  2  1  0  0  0  0
  6 10  1  0  0  0  0
  7  2  1  0  0  0  0
  9 13  1  0  0  0  0
  9 12  1  0  0  0  0
 11  6  1  0  0  0  0
 14  9  1  0  0  0  0
M  END
$$$$
