14
butane_opt
C  -3.929692   0.288666  -0.013993
C  -2.699359  -0.624268   0.070543
H  -4.843914  -0.381615  -0.063201
H  -3.886561   0.918896  -0.940521
H  -4.052235   0.929416   0.771928
C  -1.398611   0.161593   0.059870
H  -2.617366  -1.335037  -0.734130
H  -2.671356  -1.324247   1.008652
C  -0.185693  -0.687097  -0.009153
H  -1.338765   0.959036   1.002800
H  -1.391436   0.740841  -0.788146
H  -0.143881  -1.311454   0.905265
H   0.751923  -0.066855  -0.200884
H  -0.266577  -1.260778  -0.814666
