14
butane_opt
C  -3.922852   0.252460   0.025786
C  -2.712011  -0.600532   0.037668
H  -4.851662  -0.356357  -0.076051
H  -3.926597   0.807611  -0.828409
H  -3.965763   1.001476   0.947924
C  -1.407609   0.194539  -0.001764
H  -2.740906  -1.285981  -0.800475
H  -2.749528  -1.223243   0.953097
C  -0.165957  -0.703757   0.037779
H  -1.389360   0.842010   0.847534
H  -1.453821   0.878068  -0.943784
H  -0.126869  -1.342300   0.955394
H   0.756124  -0.121195   0.021045
H  -0.076909  -1.386875  -0.823586
