butane_opt
 OpenBabel08242015413D

 14 13  0  0  0  0  0  0  0  0999 V2000
   -3.9501    0.2645   -0.0105 C   0  0  0  0  0  0  0  0  0  0  0  0
   -2.7057   -0.6241    0.1094 C   0  0  0  0  0  0  0  0  0  0  0  0
   -4.8712   -0.3399   -0.2194 H   0  0  0  0  0  0  0  0  0  0  0  0
   -3.8881    0.8486   -0.8806 H   0  0  0  0  0  0  0  0  0  0  0  0
   -4.0999    0.9968    0.8848 H   0  0  0  0  0  0  0  0  0  0  0  0
   -1.3994    0.2144    0.0212 C   0  0  0  0  0  0  0  0  0  0  0  0
   -2.7593   -1.2897   -0.7535 H   0  0  0  0  0  0  0  0  0  0  0  0
   -2.7338   -1.2839    0.9953 H   0  0  0  0  0  0  0  0  0  0  0  0
   -0.1459   -0.7062   -0.0040 C   0  0  0  0  0  0  0  0  0  0  0  0
   -1.3721    0.8561    0.8685 H   0  0  0  0  0  0  0  0  0  0  0  0
   -1.3255    0.7595   -0.8484 H   0  0  0  0  0  0  0  0  0  0  0  0
   -0.1250   -1.2787    0.8690 H   0  0  0  0  0  0  0  0  0  0  0  0
    0.7183   -0.0920    0.0309 H   0  0  0  0  0  0  0  0  0  0  0  0
   -0.1443   -1.4370   -0.9114 H   0  0  0  0  0  0  0  0  0  0  0  0
  1  2  1  0  0  0  0
  1  5  1  0  0  0  0
  2  8  1  0  0  0  0
  3  1  1  0  0  0  0
  4  1  1  0  0  0  0
  6  2  1  0  0  0  0
  6 10  1  0  0  0  0
  7  2  1  0  0  0  0
  9  6  1  0  0  0  0
  9 13  1  0  0  0  0
  9 12  1  0  0  0  0
 11  6  1  0  0  0  0
 14  9  1  0  0  0  0
M  END
$$$$
