14
butane_opt
C  -3.950063   0.264465  -0.010503
C  -2.705672  -0.624081   0.109407
H  -4.871187  -0.339937  -0.219422
H  -3.888126   0.848622  -0.880560
H  -4.099901   0.996811   0.884787
C  -1.399378   0.214385   0.021196
H  -2.759315  -1.289739  -0.753524
H  -2.733808  -1.283921   0.995341
C  -0.145945  -0.706213  -0.004000
H  -1.372083   0.856079   0.868452
H  -1.325451   0.759455  -0.848363
H  -0.125038  -1.278654   0.868955
H   0.718272  -0.092005   0.030865
H  -0.144309  -1.437045  -0.911367
