14
butane_opt
C  -3.939537   0.281437   0.030737
C  -2.685215  -0.642682   0.015900
H  -4.831679  -0.314061   0.014900
H  -3.977550   0.826318  -0.829892
H  -3.965143   1.030609   0.956767
C  -1.404494   0.171340   0.003876
H  -2.672206  -1.334473  -0.838185
H  -2.663757  -1.166057   0.821633
C  -0.189240  -0.681727   0.055185
H  -1.285250   0.813684   0.805678
H  -1.370105   0.856739  -0.923517
H  -0.083184  -1.394922   1.041014
H   0.751657  -0.086355  -0.095193
H  -0.303805  -1.244172  -0.748863
