14
butane_opt
C  -3.943099   0.282767  -0.012666
C  -2.686964  -0.643568   0.052681
H  -4.796030  -0.253586   0.010170
H  -3.974357   0.939310  -0.926082
H  -3.978848   0.918822   0.797851
C  -1.390699   0.163757   0.057157
H  -2.673370  -1.304687  -0.752807
H  -2.731878  -1.247994   0.931629
C  -0.171326  -0.682653   0.013552
H  -1.380344   0.915584   0.974206
H  -1.452902   0.731375  -0.799225
H  -0.062103  -1.368385   0.911016
H   0.747411  -0.030251  -0.204798
H  -0.423679  -1.203110  -0.819417
