butane_opt
 OpenBabel08242015413D

 14 13  0  0  0  0  0  0  0  0999 V2000
   -3.9374    0.2718   -0.0338 C   0  0  0  0  0  0  0  0  0  0  0  0
   -2.6785   -0.6421    0.0870 C   0  0  0  0  0  0  0  0  0  0  0  0
   -4.8491   -0.2695    0.0770 H   0  0  0  0  0  0  0  0  0  0  0  0
   -3.9757    1.0215   -1.0190 H   0  0  0  0  0  0  0  0  0  0  0  0
   -4.0054    0.8533    0.7532 H   0  0  0  0  0  0  0  0  0  0  0  0
   -1.4019    0.1895    0.0788 C   0  0  0  0  0  0  0  0  0  0  0  0
   -2.5995   -1.3601   -0.7764 H   0  0  0  0  0  0  0  0  0  0  0  0
   -2.7605   -1.2530    0.9798 H   0  0  0  0  0  0  0  0  0  0  0  0
   -0.1723   -0.6746   -0.0183 C   0  0  0  0  0  0  0  0  0  0  0  0
   -1.3748    0.8445    0.9371 H   0  0  0  0  0  0  0  0  0  0  0  0
   -1.4876    0.7315   -0.7813 H   0  0  0  0  0  0  0  0  0  0  0  0
   -0.0824   -1.2729    0.8956 H   0  0  0  0  0  0  0  0  0  0  0  0
    0.7333   -0.0931   -0.0841 H   0  0  0  0  0  0  0  0  0  0  0  0
   -0.3405   -1.3975   -0.9089 H   0  0  0  0  0  0  0  0  0  0  0  0
  1  3  1  0  0  0  0
  1  2  1  0  0  0  0
  1  5  1  0  0  0  0
  2  8  1  0  0  0  0
  4  1  1  0  0  0  0
  6  2  1  0  0  0  0
  6 10  1  0  0  0  0
  7  2  1  0  0  0  0
  9  6  1  0  0  0  0
  9 12  1  0  0  0  0
 11  6  1  0  0  0  0
 13  9  1  0  0  0  0
 14  9  1  0  0  0  0
M  END
$$$$
