14
butane_opt
C  -3.931589   0.255251   0.057694
C  -2.704380  -0.604695   0.010447
H  -4.868504  -0.387899   0.046969
H  -3.846247   0.756519  -0.829684
H  -3.926625   0.987288   0.959626
C  -1.413686   0.212066  -0.046395
H  -2.749152  -1.189944  -0.815280
H  -2.768980  -1.252603   0.945291
C  -0.165231  -0.708508   0.065368
H  -1.445622   0.839082   0.784714
H  -1.339756   0.875804  -0.947496
H  -0.211088  -1.298603   0.938697
H   0.731751  -0.154902   0.193356
H  -0.020457  -1.508881  -0.875638
