butane_opt
 OpenBabel08242015413D

 14 13  0  0  0  0  0  0  0  0999 V2000
   -3.9061    0.2510    0.0670 C   0  0  0  0  0  0  0  0  0  0  0  0
   -2.7048   -0.6011   -0.0237 C   0  0  0  0  0  0  0  0  0  0  0  0
   -4.8728   -0.3884    0.2180 H   0  0  0  0  0  0  0  0  0  0  0  0
   -4.0866    0.9016   -0.8353 H   0  0  0  0  0  0  0  0  0  0  0  0
   -3.8485    0.9390    0.9552 H   0  0  0  0  0  0  0  0  0  0  0  0
   -1.4119    0.2066   -0.0318 C   0  0  0  0  0  0  0  0  0  0  0  0
   -2.6914   -1.3986   -0.9667 H   0  0  0  0  0  0  0  0  0  0  0  0
   -2.7456   -1.1509    0.8204 H   0  0  0  0  0  0  0  0  0  0  0  0
   -0.1738   -0.7216    0.0867 C   0  0  0  0  0  0  0  0  0  0  0  0
   -1.4420    0.8565    0.7338 H   0  0  0  0  0  0  0  0  0  0  0  0
   -1.3468    0.9107   -0.9876 H   0  0  0  0  0  0  0  0  0  0  0  0
   -0.1885   -1.3800    1.0196 H   0  0  0  0  0  0  0  0  0  0  0  0
    0.7507   -0.0990    0.0763 H   0  0  0  0  0  0  0  0  0  0  0  0
   -0.1670   -1.2939   -0.7519 H   0  0  0  0  0  0  0  0  0  0  0  0
  1  3  1  0  0  0  0
  1  5  1  0  0  0  0
  2  1  1  0  0  0  0
  2  8  1  0  0  0  0
  4  1  1  0  0  0  0
  6  2  1  0  0  0  0
  6  9  1  0  0  0  0
  6 10  1  0  0  0  0
  7  2  1  0  0  0  0
  9 12  1  0  0  0  0
 11  6  1  0  0  0  0
 13  9  1  0  0  0  0
 14  9  1  0  0  0  0
M  END
$$$$
