butane_opt
 OpenBabel08242015413D

 14 13  0  0  0  0  0  0  0  0999 V2000
   -3.9662    0.2740    0.0036 C   0  0  0  0  0  0  0  0  0  0  0  0
   -2.7000   -0.6266    0.0544 C   0  0  0  0  0  0  0  0  0  0  0  0
   -4.8724   -0.2842    0.0475 H   0  0  0  0  0  0  0  0  0  0  0  0
   -3.9740    0.9694   -0.9649 H   0  0  0  0  0  0  0  0  0  0  0  0
   -3.9638    0.8600    0.7827 H   0  0  0  0  0  0  0  0  0  0  0  0
   -1.3952    0.1683    0.0381 C   0  0  0  0  0  0  0  0  0  0  0  0
   -2.7455   -1.2725   -0.7795 H   0  0  0  0  0  0  0  0  0  0  0  0
   -2.6963   -1.2643    0.9351 H   0  0  0  0  0  0  0  0  0  0  0  0
   -0.1517   -0.6828    0.0071 C   0  0  0  0  0  0  0  0  0  0  0  0
   -1.3342    0.8962    0.9344 H   0  0  0  0  0  0  0  0  0  0  0  0
   -1.3671    0.7772   -0.8141 H   0  0  0  0  0  0  0  0  0  0  0  0
   -0.1143   -1.2945    0.8819 H   0  0  0  0  0  0  0  0  0  0  0  0
    0.7402   -0.0947    0.0098 H   0  0  0  0  0  0  0  0  0  0  0  0
   -0.1456   -1.3582   -0.8479 H   0  0  0  0  0  0  0  0  0  0  0  0
  1  3  1  0  0  0  0
  1  2  1  0  0  0  0
  1  5  1  0  0  0  0
  2  8  1  0  0  0  0
  4  1  1  0  0  0  0
  6  2  1  0  0  0  0
  6 10  1  0  0  0  0
  7  2  1  0  0  0  0
  9 13  1  0  0  0  0
  9  6  1  0  0  0  0
  9 12  1  0  0  0  0
 11  6  1  0  0  0  0
 14  9  1  0  0  0  0
M  END
$$$$
