butane_opt
 OpenBabel08242015413D

 14 13  0  0  0  0  0  0  0  0999 V2000
   -3.9446    0.2343    0.0515 C   0  0  0  0  0  0  0  0  0  0  0  0
   -2.7159   -0.5879    0.0396 C   0  0  0  0  0  0  0  0  0  0  0  0
   -4.9017   -0.3782   -0.2009 H   0  0  0  0  0  0  0  0  0  0  0  0
   -3.9073    0.7724   -0.8101 H   0  0  0  0  0  0  0  0  0  0  0  0
   -4.0665    1.0525    0.9793 H   0  0  0  0  0  0  0  0  0  0  0  0
   -1.4033    0.2210   -0.0272 C   0  0  0  0  0  0  0  0  0  0  0  0
   -2.7544   -1.2746   -0.8886 H   0  0  0  0  0  0  0  0  0  0  0  0
   -2.6768   -1.2568    0.9581 H   0  0  0  0  0  0  0  0  0  0  0  0
   -0.1451   -0.7130    0.0547 C   0  0  0  0  0  0  0  0  0  0  0  0
   -1.3544    0.8157    0.7585 H   0  0  0  0  0  0  0  0  0  0  0  0
   -1.3703    0.8935   -0.9585 H   0  0  0  0  0  0  0  0  0  0  0  0
   -0.1128   -1.3355    0.9836 H   0  0  0  0  0  0  0  0  0  0  0  0
    0.7149   -0.1998    0.0500 H   0  0  0  0  0  0  0  0  0  0  0  0
   -0.0577   -1.4377   -0.8480 H   0  0  0  0  0  0  0  0  0  0  0  0
  1  5  1  0  0  0  0
  2  1  1  0  0  0  0
  2  8  1  0  0  0  0
  3  1  1  0  0  0  0
  4  1  1  0  0  0  0
  6  2  1  0  0  0  0
  6  9  1  0  0  0  0
  6 10  1  0  0  0  0
  7  2  1  0  0  0  0
  9 12  1  0  0  0  0
 11  6  1  0  0  0  0
 13  9  1  0  0  0  0
 14  9  1  0  0  0  0
M  END
$$$$
