14
butane_opt
C  -3.934287   0.248100   0.022069
C  -2.704692  -0.590656   0.038677
H  -4.842306  -0.350084   0.049092
H  -3.926959   0.772206  -0.823718
H  -3.878915   1.060507   0.989701
C  -1.406360   0.188106  -0.023684
H  -2.691403  -1.254122  -0.814518
H  -2.700243  -1.230333   0.938019
C  -0.177076  -0.705374   0.049578
H  -1.427227   0.778558   0.756983
H  -1.336046   0.850442  -0.885099
H  -0.200978  -1.253921   0.939075
H   0.714759  -0.108525   0.105656
H  -0.058835  -1.427333  -0.852917
