14
butane_opt
C  -3.907644   0.253242   0.039125
C  -2.714501  -0.602906   0.039298
H  -4.871285  -0.404907  -0.179699
H  -3.930505   0.653901  -0.712325
H  -3.947854   1.180333   1.077951
C  -1.406348   0.208780  -0.035551
H  -2.742823  -1.358851  -0.860638
H  -2.782827  -1.181271   0.879972
C  -0.163169  -0.718015   0.059252
H  -1.508289   0.779804   0.747794
H  -1.398864   0.965384  -0.977737
H  -0.128722  -1.386942   1.053317
H   0.731181  -0.138386  -0.030161
H  -0.132529  -1.288493  -0.757323
