butane_opt
 OpenBabel08242015413D

 14 13  0  0  0  0  0  0  0  0999 V2000
   -3.9577    0.2904   -0.0146 C   0  0  0  0  0  0  0  0  0  0  0  0
   -2.7074   -0.6398    0.0434 C   0  0  0  0  0  0  0  0  0  0  0  0
   -4.9075   -0.3260    0.2230 H   0  0  0  0  0  0  0  0  0  0  0  0
   -4.0357    1.0904   -1.0235 H   0  0  0  0  0  0  0  0  0  0  0  0
   -3.9275    0.7556    0.7466 H   0  0  0  0  0  0  0  0  0  0  0  0
   -1.3782    0.1619    0.0568 C   0  0  0  0  0  0  0  0  0  0  0  0
   -2.6869   -1.2376   -0.6815 H   0  0  0  0  0  0  0  0  0  0  0  0
   -2.7206   -1.2690    0.9451 H   0  0  0  0  0  0  0  0  0  0  0  0
   -0.1671   -0.6793   -0.0031 C   0  0  0  0  0  0  0  0  0  0  0  0
   -1.3089    0.9309    0.9978 H   0  0  0  0  0  0  0  0  0  0  0  0
   -1.4566    0.7220   -0.7739 H   0  0  0  0  0  0  0  0  0  0  0  0
   -0.1770   -1.2426    0.8576 H   0  0  0  0  0  0  0  0  0  0  0  0
    0.7877   -0.0615    0.0298 H   0  0  0  0  0  0  0  0  0  0  0  0
   -0.0832   -1.4226   -0.8997 H   0  0  0  0  0  0  0  0  0  0  0  0
  1  2  1  0  0  0  0
  1  3  1  0  0  0  0
  1  5  1  0  0  0  0
  2  6  1  0  0  0  0
  2  8  1  0  0  0  0
  4  1  1  0  0  0  0
  6 10  1  0  0  0  0
  7  2  1  0  0  0  0
  9 13  1  0  0  0  0
  9  6  1  0  0  0  0
  9 12  1  0  0  0  0
 11  6  1  0  0  0  0
 14  9  1  0  0  0  0
M  END
$$$$
