14
butane_opt
C  -3.920425   0.233800  -0.014348
C  -2.714269  -0.591814   0.095600
H  -4.851024  -0.380232   0.010504
H  -3.937664   0.980179  -1.026157
H  -3.932743   0.862196   0.820253
C  -1.426309   0.212121   0.037073
H  -2.702716  -1.244039  -0.708901
H  -2.698473  -1.247430   1.028776
C  -0.143982  -0.710915  -0.016053
H  -1.392309   0.841861   0.843627
H  -1.482476   0.863596  -0.848919
H  -0.238572  -1.126925   0.785657
H   0.726890  -0.167825   0.286679
H  -0.033872  -1.587239  -1.012543
