14
butane_opt
C  -3.941516   0.255984   0.072165
C  -2.703625  -0.601418  -0.027318
H  -4.873187  -0.358127   0.293754
H  -4.063857   0.958648  -0.849534
H  -3.776100   0.779215   0.824111
C  -1.409323   0.199065  -0.035574
H  -2.698922  -1.377349  -0.959282
H  -2.696717  -1.057526   0.772659
C  -0.157910  -0.717005   0.082558
H  -1.349519   0.873235   0.810226
H  -1.351830   0.848635  -0.954010
H  -0.239738  -1.351731   1.026531
H   0.742415  -0.126704   0.099830
H  -0.150536  -1.313811  -0.723731
