butane_opt
 OpenBabel08242015413D

 14 13  0  0  0  0  0  0  0  0999 V2000
   -3.9343    0.2481    0.0221 C   0  0  0  0  0  0  0  0  0  0  0  0
   -2.7047   -0.5907    0.0387 C   0  0  0  0  0  0  0  0  0  0  0  0
   -4.8423   -0.3501    0.0491 H   0  0  0  0  0  0  0  0  0  0  0  0
   -3.9270    0.7722   -0.8237 H   0  0  0  0  0  0  0  0  0  0  0  0
   -3.8789    1.0605    0.9897 H   0  0  0  0  0  0  0  0  0  0  0  0
   -1.4064    0.1881   -0.0237 C   0  0  0  0  0  0  0  0  0  0  0  0
   -2.6914   -1.2541   -0.8145 H   0  0  0  0  0  0  0  0  0  0  0  0
   -2.7002   -1.2303    0.9380 H   0  0  0  0  0  0  0  0  0  0  0  0
   -0.1771   -0.7054    0.0496 C   0  0  0  0  0  0  0  0  0  0  0  0
   -1.4272    0.7786    0.7570 H   0  0  0  0  0  0  0  0  0  0  0  0
   -1.3360    0.8504   -0.8851 H   0  0  0  0  0  0  0  0  0  0  0  0
   -0.2010   -1.2539    0.9391 H   0  0  0  0  0  0  0  0  0  0  0  0
    0.7148   -0.1085    0.1057 H   0  0  0  0  0  0  0  0  0  0  0  0
   -0.0588   -1.4273   -0.8529 H   0  0  0  0  0  0  0  0  0  0  0  0
  1  2  1  0  0  0  0
  1  3  1  0  0  0  0
  1  5  1  0  0  0  0
  2  8  1  0  0  0  0
  4  1  1  0  0  0  0
  6  2  1  0  0  0  0
  6  9  1  0  0  0  0
  6 10  1  0  0  0  0
  7  2  1  0  0  0  0
  9 13  1  0  0  0  0
  9 12  1  0  0  0  0
 11  6  1  0  0  0  0
 14  9  1  0  0  0  0
M  END
$$$$
