14
butane_opt
C  -3.918158   0.248324  -0.018202
C  -2.707813  -0.601858   0.074017
H  -4.813481  -0.300647   0.132751
H  -3.875910   0.959350  -1.008577
H  -3.877562   0.787793   0.734131
C  -1.431713   0.201890   0.044553
H  -2.667479  -1.174732  -0.701489
H  -2.705534  -1.422640   1.092281
C  -0.166121  -0.703210  -0.007755
H  -1.418258   0.969682   0.909712
H  -1.455738   0.813636  -0.826417
H  -0.152179  -1.126652   0.733701
H   0.741659  -0.091872   0.247760
H  -0.121699  -1.628559  -1.012970
