butane_opt
 OpenBabel08242015413D

 14 13  0  0  0  0  0  0  0  0999 V2000
   -3.9076    0.2532    0.0391 C   0  0  0  0  0  0  0  0  0  0  0  0
   -2.7145   -0.6029    0.0393 C   0  0  0  0  0  0  0  0  0  0  0  0
   -4.8713   -0.4049   -0.1797 H   0  0  0  0  0  0  0  0  0  0  0  0
   -3.9305    0.6539   -0.7123 H   0  0  0  0  0  0  0  0  0  0  0  0
   -3.9479    1.1803    1.0780 H   0  0  0  0  0  0  0  0  0  0  0  0
   -1.4063    0.2088   -0.0356 C   0  0  0  0  0  0  0  0  0  0  0  0
   -2.7428   -1.3589   -0.8606 H   0  0  0  0  0  0  0  0  0  0  0  0
   -2.7828   -1.1813    0.8800 H   0  0  0  0  0  0  0  0  0  0  0  0
   -0.1632   -0.7180    0.0593 C   0  0  0  0  0  0  0  0  0  0  0  0
   -1.5083    0.7798    0.7478 H   0  0  0  0  0  0  0  0  0  0  0  0
   -1.3989    0.9654   -0.9777 H   0  0  0  0  0  0  0  0  0  0  0  0
   -0.1287   -1.3869    1.0533 H   0  0  0  0  0  0  0  0  0  0  0  0
    0.7312   -0.1384   -0.0302 H   0  0  0  0  0  0  0  0  0  0  0  0
   -0.1325   -1.2885   -0.7573 H   0  0  0  0  0  0  0  0  0  0  0  0
  1  2  1  0  0  0  0
  1  5  1  0  0  0  0
  2  8  1  0  0  0  0
  3  1  1  0  0  0  0
  4  1  1  0  0  0  0
  6  2  1  0  0  0  0
  6  9  1  0  0  0  0
  6 10  1  0  0  0  0
  7  2  1  0  0  0  0
  9 12  1  0  0  0  0
 11  6  1  0  0  0  0
 13  9  1  0  0  0  0
 14  9  1  0  0  0  0
M  END
$$$$
