14
butane_opt
C  -3.957685   0.290393  -0.014632
C  -2.707370  -0.639849   0.043363
H  -4.907546  -0.325971   0.222959
H  -4.035745   1.090446  -1.023524
H  -3.927513   0.755631   0.746635
C  -1.378171   0.161906   0.056752
H  -2.686889  -1.237622  -0.681498
H  -2.720565  -1.269003   0.945138
C  -0.167114  -0.679277  -0.003103
H  -1.308851   0.930861   0.997800
H  -1.456631   0.721989  -0.773936
H  -0.176995  -1.242640   0.857624
H   0.787651  -0.061529   0.029811
H  -0.083170  -1.422607  -0.899708
