butane_opt
 OpenBabel08242015413D

 14 13  0  0  0  0  0  0  0  0999 V2000
   -3.9329    0.2404   -0.0251 C   0  0  0  0  0  0  0  0  0  0  0  0
   -2.7075   -0.5867    0.0930 C   0  0  0  0  0  0  0  0  0  0  0  0
   -4.7943   -0.3210   -0.2101 H   0  0  0  0  0  0  0  0  0  0  0  0
   -3.7261    0.7203   -0.8508 H   0  0  0  0  0  0  0  0  0  0  0  0
   -4.0661    0.9781    0.8727 H   0  0  0  0  0  0  0  0  0  0  0  0
   -1.4220    0.2178    0.0569 C   0  0  0  0  0  0  0  0  0  0  0  0
   -2.7120   -1.1984   -0.7145 H   0  0  0  0  0  0  0  0  0  0  0  0
   -2.7728   -1.3199    1.0685 H   0  0  0  0  0  0  0  0  0  0  0  0
   -0.1570   -0.7297   -0.0077 C   0  0  0  0  0  0  0  0  0  0  0  0
   -1.3602    0.8867    0.9166 H   0  0  0  0  0  0  0  0  0  0  0  0
   -1.4420    0.8711   -0.8880 H   0  0  0  0  0  0  0  0  0  0  0  0
   -0.0393   -1.2672    0.8852 H   0  0  0  0  0  0  0  0  0  0  0  0
    0.7676   -0.1010   -0.1248 H   0  0  0  0  0  0  0  0  0  0  0  0
   -0.2464   -1.4257   -0.9100 H   0  0  0  0  0  0  0  0  0  0  0  0
  1  2  1  0  0  0  0
  1  5  1  0  0  0  0
  2  8  1  0  0  0  0
  3  1  1  0  0  0  0
  4  1  1  0  0  0  0
  6  2  1  0  0  0  0
  6 10  1  0  0  0  0
  7  2  1  0  0  0  0
  9  6  1  0  0  0  0
  9 12  1  0  0  0  0
 11  6  1  0  0  0  0
 13  9  1  0  0  0  0
 14  9  1  0  0  0  0
M  END
$$$$
