butane_opt
 OpenBabel08242015413D

 14 13  0  0  0  0  0  0  0  0999 V2000
   -3.9386    0.2874   -0.0362 C   0  0  0  0  0  0  0  0  0  0  0  0
   -2.6869   -0.6337    0.0942 C   0  0  0  0  0  0  0  0  0  0  0  0
   -4.8849   -0.3321   -0.0119 H   0  0  0  0  0  0  0  0  0  0  0  0
   -3.8577    0.9313   -0.9799 H   0  0  0  0  0  0  0  0  0  0  0  0
   -4.0638    0.9282    0.7798 H   0  0  0  0  0  0  0  0  0  0  0  0
   -1.4061    0.1720    0.0775 C   0  0  0  0  0  0  0  0  0  0  0  0
   -2.6495   -1.3082   -0.7695 H   0  0  0  0  0  0  0  0  0  0  0  0
   -2.7222   -1.2624    1.0248 H   0  0  0  0  0  0  0  0  0  0  0  0
   -0.1860   -0.6890   -0.0188 C   0  0  0  0  0  0  0  0  0  0  0  0
   -1.3290    0.8812    0.9281 H   0  0  0  0  0  0  0  0  0  0  0  0
   -1.3458    0.6746   -0.7344 H   0  0  0  0  0  0  0  0  0  0  0  0
   -0.0563   -1.3242    0.8782 H   0  0  0  0  0  0  0  0  0  0  0  0
    0.7850   -0.0039   -0.1807 H   0  0  0  0  0  0  0  0  0  0  0  0
   -0.2907   -1.2888   -0.8911 H   0  0  0  0  0  0  0  0  0  0  0  0
  1  3  1  0  0  0  0
  1  2  1  0  0  0  0
  1  5  1  0  0  0  0
  2  8  1  0  0  0  0
  4  1  1  0  0  0  0
  6  2  1  0  0  0  0
  6 10  1  0  0  0  0
  7  2  1  0  0  0  0
  9  6  1  0  0  0  0
  9 12  1  0  0  0  0
 11  6  1  0  0  0  0
 13  9  1  0  0  0  0
 14  9  1  0  0  0  0
M  END
$$$$
