butane_opt
 OpenBabel08242015413D

 14 13  0  0  0  0  0  0  0  0999 V2000
   -3.9621    0.2818    0.0801 C   0  0  0  0  0  0  0  0  0  0  0  0
   -2.7041   -0.6340    0.0016 C   0  0  0  0  0  0  0  0  0  0  0  0
   -4.8227   -0.2643    0.0204 H   0  0  0  0  0  0  0  0  0  0  0  0
   -4.0238    0.9497   -0.8192 H   0  0  0  0  0  0  0  0  0  0  0  0
   -4.0437    0.9324    0.9434 H   0  0  0  0  0  0  0  0  0  0  0  0
   -1.3883    0.1606   -0.0569 C   0  0  0  0  0  0  0  0  0  0  0  0
   -2.7602   -1.3675   -0.8704 H   0  0  0  0  0  0  0  0  0  0  0  0
   -2.6826   -1.1904    0.8496 H   0  0  0  0  0  0  0  0  0  0  0  0
   -0.1427   -0.6856    0.0803 C   0  0  0  0  0  0  0  0  0  0  0  0
   -1.3865    0.7538    0.7579 H   0  0  0  0  0  0  0  0  0  0  0  0
   -1.2951    0.8427   -1.0414 H   0  0  0  0  0  0  0  0  0  0  0  0
   -0.3345   -1.1590    0.9006 H   0  0  0  0  0  0  0  0  0  0  0  0
    0.7722   -0.0290    0.2122 H   0  0  0  0  0  0  0  0  0  0  0  0
   -0.0774   -1.4082   -0.7929 H   0  0  0  0  0  0  0  0  0  0  0  0
  1  5  1  0  0  0  0
  2  1  1  0  0  0  0
  2  8  1  0  0  0  0
  3  1  1  0  0  0  0
  4  1  1  0  0  0  0
  6  2  1  0  0  0  0
  6  9  1  0  0  0  0
  6 10  1  0  0  0  0
  7  2  1  0  0  0  0
  9 13  1  0  0  0  0
  9 12  1  0  0  0  0
 11  6  1  0  0  0  0
 14  9  1  0  0  0  0
M  END
$$$$
