14
butane_opt
C  -3.936323   0.270602  -0.014536
C  -2.692713  -0.615131   0.077960
H  -4.830956  -0.307954   0.065438
H  -3.955275   0.917420  -0.923967
H  -4.001971   0.909565   0.827202
C  -1.406465   0.169849   0.025673
H  -2.714018  -1.253334  -0.756023
H  -2.705259  -1.276606   0.985954
C  -0.179009  -0.690290   0.001283
H  -1.305730   0.860318   0.910089
H  -1.417345   0.761993  -0.837010
H  -0.209724  -1.202169   0.863923
H   0.803593  -0.045879   0.122374
H  -0.118498  -1.449053  -0.911892
