butane_opt
 OpenBabel08242015413D

 14 13  0  0  0  0  0  0  0  0999 V2000
   -3.9450    0.2396    0.0312 C   0  0  0  0  0  0  0  0  0  0  0  0
   -2.6968   -0.6060    0.0350 C   0  0  0  0  0  0  0  0  0  0  0  0
   -4.8806   -0.3131   -0.1097 H   0  0  0  0  0  0  0  0  0  0  0  0
   -3.9580    0.6950   -0.7795 H   0  0  0  0  0  0  0  0  0  0  0  0
   -4.0015    1.0644    1.0089 H   0  0  0  0  0  0  0  0  0  0  0  0
   -1.4126    0.2219   -0.0021 C   0  0  0  0  0  0  0  0  0  0  0  0
   -2.7881   -1.2753   -0.8590 H   0  0  0  0  0  0  0  0  0  0  0  0
   -2.8092   -1.2632    0.9170 H   0  0  0  0  0  0  0  0  0  0  0  0
   -0.1387   -0.7227    0.0406 C   0  0  0  0  0  0  0  0  0  0  0  0
   -1.4763    0.8473    0.7698 H   0  0  0  0  0  0  0  0  0  0  0  0
   -1.4023    0.9661   -0.9588 H   0  0  0  0  0  0  0  0  0  0  0  0
   -0.0316   -1.3756    0.9323 H   0  0  0  0  0  0  0  0  0  0  0  0
    0.7474   -0.1540    0.0366 H   0  0  0  0  0  0  0  0  0  0  0  0
   -0.0966   -1.2676   -0.7427 H   0  0  0  0  0  0  0  0  0  0  0  0
  1  2  1  0  0  0  0
  1  5  1  0  0  0  0
  2  8  1  0  0  0  0
  3  1  1  0  0  0  0
  4  1  1  0  0  0  0
  6  2  1  0  0  0  0
  6  9  1  0  0  0  0
  6 10  1  0  0  0  0
  7  2  1  0  0  0  0
  9 12  1  0  0  0  0
 11  6  1  0  0  0  0
 13  9  1  0  0  0  0
 14  9  1  0  0  0  0
M  END
$$$$
