14
butane_opt
C  -3.972394   0.277958  -0.008167
C  -2.692770  -0.643366   0.054370
H  -4.847266  -0.289015   0.164477
H  -4.073111   1.070393  -0.988175
H  -4.018023   0.854498   0.811621
C  -1.396099   0.172097   0.033247
H  -2.631934  -1.205450  -0.696159
H  -2.777547  -1.350102   1.032137
C  -0.147319  -0.689796   0.005454
H  -1.344149   0.891063   0.879541
H  -1.355402   0.741708  -0.830615
H  -0.171742  -1.085002   0.791220
H   0.852790  -0.003341   0.219717
H  -0.154120  -1.493067  -0.983868
