14
butane_opt
C  -3.982179   0.276860  -0.036639
C  -2.699463  -0.633734   0.113969
H  -4.877600  -0.288051  -0.124677
H  -3.929242   0.822178  -0.918562
H  -4.093984   0.969589   0.801018
C  -1.380821   0.184234   0.041847
H  -2.677802  -1.251420  -0.663590
H  -2.623734  -1.353051   1.067144
C  -0.143861  -0.687016  -0.018367
H  -1.326667   0.939651   0.924816
H  -1.405252   0.714982  -0.757120
H  -0.189126  -1.190279   0.841999
H   0.733776  -0.115282  -0.012470
H  -0.148277  -1.414803  -0.947668
