14
butane_opt
C  -3.982911   0.279830  -0.020938
C  -2.702891  -0.637345   0.058212
H  -4.765852  -0.208565   0.244207
H  -4.029971   1.076532  -1.038477
H  -3.989922   0.738237   0.715130
C  -1.391269   0.167385   0.061892
H  -2.680163  -1.323433  -0.756971
H  -2.666570  -1.330102   0.980668
C  -0.146149  -0.677725  -0.009162
H  -1.388446   0.917312   0.999197
H  -1.363877   0.737906  -0.766553
H  -0.165500  -1.198961   0.862518
H   0.830233  -0.028399   0.033153
H  -0.148463  -1.408852  -0.948563
