butane_opt
 OpenBabel08242015413D

 14 13  0  0  0  0  0  0  0  0999 V2000
   -3.9232    0.2467    0.0504 C   0  0  0  0  0  0  0  0  0  0  0  0
   -2.7077   -0.5917   -0.0256 C   0  0  0  0  0  0  0  0  0  0  0  0
   -4.8586   -0.3761    0.0483 H   0  0  0  0  0  0  0  0  0  0  0  0
   -3.9306    0.7290   -0.7566 H   0  0  0  0  0  0  0  0  0  0  0  0
   -3.8460    0.9750    0.9791 H   0  0  0  0  0  0  0  0  0  0  0  0
   -1.4253    0.2189   -0.0046 C   0  0  0  0  0  0  0  0  0  0  0  0
   -2.7076   -1.2877   -0.9028 H   0  0  0  0  0  0  0  0  0  0  0  0
   -2.6493   -1.2711    0.8619 H   0  0  0  0  0  0  0  0  0  0  0  0
   -0.1741   -0.7134    0.0694 C   0  0  0  0  0  0  0  0  0  0  0  0
   -1.4962    0.8797    0.8208 H   0  0  0  0  0  0  0  0  0  0  0  0
   -1.3644    0.8220   -0.8989 H   0  0  0  0  0  0  0  0  0  0  0  0
    0.0207   -1.5410    1.0723 H   0  0  0  0  0  0  0  0  0  0  0  0
    0.7443   -0.1772   -0.1592 H   0  0  0  0  0  0  0  0  0  0  0  0
   -0.1766   -1.1401   -0.6667 H   0  0  0  0  0  0  0  0  0  0  0  0
  1  5  1  0  0  0  0
  2  6  1  0  0  0  0
  2  1  1  0  0  0  0
  2  8  1  0  0  0  0
  3  1  1  0  0  0  0
  4  1  1  0  0  0  0
  6  9  1  0  0  0  0
  6 10  1  0  0  0  0
  7  2  1  0  0  0  0
  9 12  1  0  0  0  0
 11  6  1  0  0  0  0
 13  9  1  0  0  0  0
 14  9  1  0  0  0  0
M  END
$$$$
