14
butane_opt
C  -3.923155   0.246721   0.050402
C  -2.707678  -0.591714  -0.025573
H  -4.858555  -0.376068   0.048304
H  -3.930632   0.729008  -0.756586
H  -3.845982   0.975036   0.979063
C  -1.425279   0.218867  -0.004626
H  -2.707589  -1.287698  -0.902846
H  -2.649258  -1.271148   0.861907
C  -0.174058  -0.713427   0.069425
H  -1.496203   0.879657   0.820848
H  -1.364373   0.821967  -0.898870
H   0.020732  -1.541042   1.072270
H   0.744335  -0.177158  -0.159156
H  -0.176554  -1.140059  -0.666658
