14
butane_opt
C  -3.929936   0.247680   0.038034
C  -2.708803  -0.604813   0.001586
H  -4.856292  -0.399517  -0.013239
H  -3.913176   0.810916  -0.826442
H  -3.933809   0.953264   0.890818
C  -1.403121   0.229650   0.007271
H  -2.743503  -1.275165  -0.853867
H  -2.673461  -1.181013   0.903013
C  -0.178874  -0.725411   0.045500
H  -1.337551   0.935823   0.884945
H  -1.461026   0.790380  -0.814690
H  -0.070752  -1.542513   1.091204
H   0.728404  -0.107648  -0.217177
H  -0.106692  -1.228911  -0.696436
