butane_opt
 OpenBabel08242015413D

 14 13  0  0  0  0  0  0  0  0999 V2000
   -3.9346    0.2837    0.0448 C   0  0  0  0  0  0  0  0  0  0  0  0
   -2.6782   -0.6338    0.0036 C   0  0  0  0  0  0  0  0  0  0  0  0
   -4.8491   -0.3157    0.1814 H   0  0  0  0  0  0  0  0  0  0  0  0
   -4.0821    0.9643   -0.8925 H   0  0  0  0  0  0  0  0  0  0  0  0
   -3.9120    0.9024    0.8631 H   0  0  0  0  0  0  0  0  0  0  0  0
   -1.4024    0.1814   -0.0027 C   0  0  0  0  0  0  0  0  0  0  0  0
   -2.7583   -1.3652   -0.8940 H   0  0  0  0  0  0  0  0  0  0  0  0
   -2.6079   -1.3390    0.8834 H   0  0  0  0  0  0  0  0  0  0  0  0
   -0.1892   -0.6854    0.0609 C   0  0  0  0  0  0  0  0  0  0  0  0
   -1.3702    0.7647    0.7626 H   0  0  0  0  0  0  0  0  0  0  0  0
   -1.2733    0.8847   -0.9569 H   0  0  0  0  0  0  0  0  0  0  0  0
   -0.2884   -1.2070    0.8992 H   0  0  0  0  0  0  0  0  0  0  0  0
    0.7304   -0.0345    0.1465 H   0  0  0  0  0  0  0  0  0  0  0  0
   -0.1520   -1.4715   -0.8554 H   0  0  0  0  0  0  0  0  0  0  0  0
  1  3  1  0  0  0  0
  1  5  1  0  0  0  0
  2  1  1  0  0  0  0
  2  8  1  0  0  0  0
  4  1  1  0  0  0  0
  6  2  1  0  0  0  0
  6  9  1  0  0  0  0
  6 10  1  0  0  0  0
  7  2  1  0  0  0  0
  9 13  1  0  0  0  0
  9 12  1  0  0  0  0
 11  6  1  0  0  0  0
 14  9  1  0  0  0  0
M  END
$$$$
