14
butane_opt
C  -3.941067   0.287171  -0.015674
C  -2.678585  -0.642546   0.097059
H  -4.842425  -0.309453  -0.223751
H  -3.855773   0.695414  -0.857483
H  -4.078210   1.103465   0.951242
C  -1.402407   0.167895   0.046313
H  -2.571466  -1.301552  -0.728155
H  -2.753391  -1.301279   0.981946
C  -0.176015  -0.673620  -0.003179
H  -1.420154   0.746095   0.824589
H  -1.417865   0.907250  -0.884947
H  -0.200649  -1.247131   0.860428
H   0.715440  -0.104863  -0.092866
H  -0.220660  -1.326705  -0.868784
