butane_opt
 OpenBabel08242015413D

 14 13  0  0  0  0  0  0  0  0999 V2000
   -3.9467    0.2858    0.0445 C   0  0  0  0  0  0  0  0  0  0  0  0
   -2.6944   -0.6484    0.0315 C   0  0  0  0  0  0  0  0  0  0  0  0
   -4.7783   -0.2887   -0.0689 H   0  0  0  0  0  0  0  0  0  0  0  0
   -3.9058    0.8338   -0.7988 H   0  0  0  0  0  0  0  0  0  0  0  0
   -4.1120    1.0548    0.9579 H   0  0  0  0  0  0  0  0  0  0  0  0
   -1.3813    0.1685   -0.0181 C   0  0  0  0  0  0  0  0  0  0  0  0
   -2.7559   -1.3499   -0.8394 H   0  0  0  0  0  0  0  0  0  0  0  0
   -2.6551   -1.2208    0.8874 H   0  0  0  0  0  0  0  0  0  0  0  0
   -0.1646   -0.6823    0.0464 C   0  0  0  0  0  0  0  0  0  0  0  0
   -1.4818    0.8230    0.7662 H   0  0  0  0  0  0  0  0  0  0  0  0
   -1.3419    0.8297   -0.9478 H   0  0  0  0  0  0  0  0  0  0  0  0
   -0.2752   -1.2749    0.9619 H   0  0  0  0  0  0  0  0  0  0  0  0
    0.7474   -0.0766    0.0247 H   0  0  0  0  0  0  0  0  0  0  0  0
   -0.2130   -1.2826   -0.7481 H   0  0  0  0  0  0  0  0  0  0  0  0
  1  5  1  0  0  0  0
  2  1  1  0  0  0  0
  2  8  1  0  0  0  0
  3  1  1  0  0  0  0
  4  1  1  0  0  0  0
  6  2  1  0  0  0  0
  6  9  1  0  0  0  0
  6 10  1  0  0  0  0
  7  2  1  0  0  0  0
  9 12  1  0  0  0  0
 11  6  1  0  0  0  0
 13  9  1  0  0  0  0
 14  9  1  0  0  0  0
M  END
$$$$
