butane_opt
 OpenBabel08242015413D

 14 13  0  0  0  0  0  0  0  0999 V2000
   -3.9556    0.2820    0.0013 C   0  0  0  0  0  0  0  0  0  0  0  0
   -2.7050   -0.6463    0.0625 C   0  0  0  0  0  0  0  0  0  0  0  0
   -4.7990   -0.2334    0.1122 H   0  0  0  0  0  0  0  0  0  0  0  0
   -4.0743    1.0272   -0.9681 H   0  0  0  0  0  0  0  0  0  0  0  0
   -3.9637    0.8358    0.8150 H   0  0  0  0  0  0  0  0  0  0  0  0
   -1.3894    0.1706    0.0060 C   0  0  0  0  0  0  0  0  0  0  0  0
   -2.7563   -1.2666   -0.7686 H   0  0  0  0  0  0  0  0  0  0  0  0
   -2.7880   -1.2953    1.0151 H   0  0  0  0  0  0  0  0  0  0  0  0
   -0.1501   -0.6744    0.0095 C   0  0  0  0  0  0  0  0  0  0  0  0
   -1.3026    0.8943    0.9304 H   0  0  0  0  0  0  0  0  0  0  0  0
   -1.4377    0.7491   -0.8162 H   0  0  0  0  0  0  0  0  0  0  0  0
   -0.2321   -1.2046    0.8568 H   0  0  0  0  0  0  0  0  0  0  0  0
    0.7499   -0.0308    0.2436 H   0  0  0  0  0  0  0  0  0  0  0  0
   -0.0352   -1.5246   -0.9585 H   0  0  0  0  0  0  0  0  0  0  0  0
  1  2  1  0  0  0  0
  1  3  1  0  0  0  0
  1  5  1  0  0  0  0
  2  8  1  0  0  0  0
  4  1  1  0  0  0  0
  6  9  1  0  0  0  0
  6  2  1  0  0  0  0
  6 10  1  0  0  0  0
  7  2  1  0  0  0  0
  9 13  1  0  0  0  0
  9 12  1  0  0  0  0
 11  6  1  0  0  0  0
 14  9  1  0  0  0  0
M  END
$$$$
