butane_opt
 OpenBabel08242015413D

 14 13  0  0  0  0  0  0  0  0999 V2000
   -3.9267    0.2561   -0.0134 C   0  0  0  0  0  0  0  0  0  0  0  0
   -2.7060   -0.5925    0.0955 C   0  0  0  0  0  0  0  0  0  0  0  0
   -4.8944   -0.4031    0.0571 H   0  0  0  0  0  0  0  0  0  0  0  0
   -3.7998    0.8542   -0.8815 H   0  0  0  0  0  0  0  0  0  0  0  0
   -3.9107    0.8873    0.8615 H   0  0  0  0  0  0  0  0  0  0  0  0
   -1.4317    0.2014    0.0088 C   0  0  0  0  0  0  0  0  0  0  0  0
   -2.6938   -1.2690   -0.7599 H   0  0  0  0  0  0  0  0  0  0  0  0
   -2.7225   -1.1744    0.9656 H   0  0  0  0  0  0  0  0  0  0  0  0
   -0.1583   -0.7135    0.0087 C   0  0  0  0  0  0  0  0  0  0  0  0
   -1.3697    0.8076    0.8222 H   0  0  0  0  0  0  0  0  0  0  0  0
   -1.3982    0.8141   -0.9060 H   0  0  0  0  0  0  0  0  0  0  0  0
   -0.2401   -1.1881    0.8127 H   0  0  0  0  0  0  0  0  0  0  0  0
    0.7365   -0.0576    0.2238 H   0  0  0  0  0  0  0  0  0  0  0  0
   -0.0604   -1.5726   -0.9611 H   0  0  0  0  0  0  0  0  0  0  0  0
  1  3  1  0  0  0  0
  1  2  1  0  0  0  0
  1  5  1  0  0  0  0
  2  8  1  0  0  0  0
  4  1  1  0  0  0  0
  6  2  1  0  0  0  0
  6 10  1  0  0  0  0
  7  2  1  0  0  0  0
  9  6  1  0  0  0  0
  9 13  1  0  0  0  0
  9 12  1  0  0  0  0
 11  6  1  0  0  0  0
 14  9  1  0  0  0  0
M  END
$$$$
