14
butane_opt
C  -3.945289   0.284749   0.032775
C  -2.668687  -0.624090   0.002356
H  -4.907796  -0.335021   0.191268
H  -3.996439   0.906192  -0.839321
H  -3.927121   0.938579   0.891278
C  -1.407314   0.139603   0.001253
H  -2.730046  -1.424646  -0.974098
H  -2.628903  -1.156250   0.841035
C  -0.185033  -0.668842   0.058198
H  -1.346697   0.826458   0.891915
H  -1.420918   0.813416  -0.904511
H  -0.141288  -1.412704   0.991818
H   0.730526  -0.048460  -0.101567
H  -0.184455  -1.149679  -0.660434
