14
butane_opt
C  -3.955631   0.282045   0.001302
C  -2.705043  -0.646317   0.062480
H  -4.798995  -0.233415   0.112163
H  -4.074278   1.027218  -0.968148
H  -3.963702   0.835825   0.815013
C  -1.389387   0.170619   0.005979
H  -2.756332  -1.266601  -0.768592
H  -2.787951  -1.295251   1.015055
C  -0.150120  -0.674405   0.009543
H  -1.302552   0.894286   0.930397
H  -1.437670   0.749051  -0.816174
H  -0.232101  -1.204616   0.856779
H   0.749930  -0.030778   0.243603
H  -0.035181  -1.524568  -0.958450
