14
butane_opt
C  -3.946721   0.285756   0.044494
C  -2.694435  -0.648360   0.031528
H  -4.778320  -0.288720  -0.068882
H  -3.905816   0.833837  -0.798842
H  -4.111979   1.054832   0.957874
C  -1.381345   0.168479  -0.018140
H  -2.755878  -1.349897  -0.839435
H  -2.655115  -1.220815   0.887415
C  -0.164599  -0.682311   0.046448
H  -1.481845   0.823044   0.766173
H  -1.341863   0.829724  -0.947828
H  -0.275246  -1.274911   0.961877
H   0.747363  -0.076608   0.024698
H  -0.212976  -1.282560  -0.748141
