butane_opt
 OpenBabel08242015413D

 14 13  0  0  0  0  0  0  0  0999 V2000
   -3.9453    0.2847    0.0328 C   0  0  0  0  0  0  0  0  0  0  0  0
   -2.6687   -0.6241    0.0024 C   0  0  0  0  0  0  0  0  0  0  0  0
   -4.9078   -0.3350    0.1913 H   0  0  0  0  0  0  0  0  0  0  0  0
   -3.9964    0.9062   -0.8393 H   0  0  0  0  0  0  0  0  0  0  0  0
   -3.9271    0.9386    0.8913 H   0  0  0  0  0  0  0  0  0  0  0  0
   -1.4073    0.1396    0.0013 C   0  0  0  0  0  0  0  0  0  0  0  0
   -2.7300   -1.4246   -0.9741 H   0  0  0  0  0  0  0  0  0  0  0  0
   -2.6289   -1.1562    0.8410 H   0  0  0  0  0  0  0  0  0  0  0  0
   -0.1850   -0.6688    0.0582 C   0  0  0  0  0  0  0  0  0  0  0  0
   -1.3467    0.8265    0.8919 H   0  0  0  0  0  0  0  0  0  0  0  0
   -1.4209    0.8134   -0.9045 H   0  0  0  0  0  0  0  0  0  0  0  0
   -0.1413   -1.4127    0.9918 H   0  0  0  0  0  0  0  0  0  0  0  0
    0.7305   -0.0485   -0.1016 H   0  0  0  0  0  0  0  0  0  0  0  0
   -0.1845   -1.1497   -0.6604 H   0  0  0  0  0  0  0  0  0  0  0  0
  1  3  1  0  0  0  0
  1  5  1  0  0  0  0
  2  1  1  0  0  0  0
  2  8  1  0  0  0  0
  4  1  1  0  0  0  0
  6  2  1  0  0  0  0
  6  9  1  0  0  0  0
  6 10  1  0  0  0  0
  7  2  1  0  0  0  0
  9 12  1  0  0  0  0
 11  6  1  0  0  0  0
 13  9  1  0  0  0  0
 14  9  1  0  0  0  0
M  END
$$$$
