14
butane_opt
C  -3.926714   0.256108  -0.013425
C  -2.706011  -0.592464   0.095495
H  -4.894395  -0.403087   0.057110
H  -3.799805   0.854174  -0.881485
H  -3.910662   0.887308   0.861470
C  -1.431669   0.201428   0.008801
H  -2.693815  -1.269030  -0.759895
H  -2.722547  -1.174374   0.965609
C  -0.158266  -0.713538   0.008709
H  -1.369650   0.807650   0.822172
H  -1.398224   0.814080  -0.905987
H  -0.240105  -1.188101   0.812691
H   0.736509  -0.057638   0.223763
H  -0.060450  -1.572586  -0.961097
