14
butane_opt
C  -3.930373   0.263565   0.055231
C  -2.704084  -0.595952   0.028457
H  -4.882166  -0.375387  -0.249327
H  -3.934423   0.585107  -0.644585
H  -3.989343   1.130746   1.073865
C  -1.422743   0.181412  -0.058932
H  -2.648222  -1.318145  -0.851262
H  -2.674839  -1.222254   0.916188
C  -0.156826  -0.695277   0.068011
H  -1.397027   0.835056   0.720867
H  -1.391682   0.766851  -0.936641
H  -0.178890  -1.422150   1.060225
H   0.717386  -0.123344  -0.016807
H  -0.065923  -1.186131  -0.708447
