14
butane_opt
C  -3.931647   0.268021   0.062042
C  -2.706536  -0.590664   0.014670
H  -4.914585  -0.420479   0.066806
H  -3.880686   0.785856  -0.807860
H  -3.868210   0.862020   0.910888
C  -1.411408   0.198128  -0.060095
H  -2.808108  -1.223709  -0.808213
H  -2.663562  -1.237785   0.917633
C  -0.167940  -0.712767   0.067954
H  -1.491445   0.831796   0.795777
H  -1.303881   0.800497  -0.962123
H  -0.297011  -1.219094   0.865975
H   0.734234  -0.119774   0.284302
H   0.074250  -1.489335  -0.863465
