butane_opt
 OpenBabel08242015413D

 14 13  0  0  0  0  0  0  0  0999 V2000
   -3.9304    0.2636    0.0552 C   0  0  0  0  0  0  0  0  0  0  0  0
   -2.7041   -0.5960    0.0285 C   0  0  0  0  0  0  0  0  0  0  0  0
   -4.8822   -0.3754   -0.2493 H   0  0  0  0  0  0  0  0  0  0  0  0
   -3.9344    0.5851   -0.6446 H   0  0  0  0  0  0  0  0  0  0  0  0
   -3.9893    1.1307    1.0739 H   0  0  0  0  0  0  0  0  0  0  0  0
   -1.4227    0.1814   -0.0589 C   0  0  0  0  0  0  0  0  0  0  0  0
   -2.6482   -1.3181   -0.8513 H   0  0  0  0  0  0  0  0  0  0  0  0
   -2.6748   -1.2223    0.9162 H   0  0  0  0  0  0  0  0  0  0  0  0
   -0.1568   -0.6953    0.0680 C   0  0  0  0  0  0  0  0  0  0  0  0
   -1.3970    0.8351    0.7209 H   0  0  0  0  0  0  0  0  0  0  0  0
   -1.3917    0.7669   -0.9366 H   0  0  0  0  0  0  0  0  0  0  0  0
   -0.1789   -1.4222    1.0602 H   0  0  0  0  0  0  0  0  0  0  0  0
    0.7174   -0.1233   -0.0168 H   0  0  0  0  0  0  0  0  0  0  0  0
   -0.0659   -1.1861   -0.7084 H   0  0  0  0  0  0  0  0  0  0  0  0
  1  5  1  0  0  0  0
  2  1  1  0  0  0  0
  2  8  1  0  0  0  0
  3  1  1  0  0  0  0
  4  1  1  0  0  0  0
  6  2  1  0  0  0  0
  6  9  1  0  0  0  0
  6 10  1  0  0  0  0
  7  2  1  0  0  0  0
  9 12  1  0  0  0  0
 11  6  1  0  0  0  0
 13  9  1  0  0  0  0
 14  9  1  0  0  0  0
M  END
$$$$
