butane_opt
 OpenBabel08242015413D

 14 13  0  0  0  0  0  0  0  0999 V2000
   -3.9555    0.2752   -0.0099 C   0  0  0  0  0  0  0  0  0  0  0  0
   -2.7111   -0.6326    0.0491 C   0  0  0  0  0  0  0  0  0  0  0  0
   -4.8660   -0.2655   -0.0060 H   0  0  0  0  0  0  0  0  0  0  0  0
   -3.9416    0.9176   -0.8911 H   0  0  0  0  0  0  0  0  0  0  0  0
   -4.0573    1.0089    0.9071 H   0  0  0  0  0  0  0  0  0  0  0  0
   -1.3887    0.1567    0.0670 C   0  0  0  0  0  0  0  0  0  0  0  0
   -2.6517   -1.3536   -0.7930 H   0  0  0  0  0  0  0  0  0  0  0  0
   -2.8039   -1.2188    0.9074 H   0  0  0  0  0  0  0  0  0  0  0  0
   -0.1435   -0.6741    0.0083 C   0  0  0  0  0  0  0  0  0  0  0  0
   -1.3396    0.8437    0.8973 H   0  0  0  0  0  0  0  0  0  0  0  0
   -1.4263    0.8472   -0.8875 H   0  0  0  0  0  0  0  0  0  0  0  0
   -0.0669   -1.4167    1.0127 H   0  0  0  0  0  0  0  0  0  0  0  0
    0.7782   -0.0846   -0.2318 H   0  0  0  0  0  0  0  0  0  0  0  0
   -0.2722   -1.2492   -0.8231 H   0  0  0  0  0  0  0  0  0  0  0  0
  1  3  1  0  0  0  0
  1  2  1  0  0  0  0
  1  5  1  0  0  0  0
  2  6  1  0  0  0  0
  2  8  1  0  0  0  0
  4  1  1  0  0  0  0
  6 10  1  0  0  0  0
  7  2  1  0  0  0  0
  9  6  1  0  0  0  0
  9 12  1  0  0  0  0
 11  6  1  0  0  0  0
 13  9  1  0  0  0  0
 14  9  1  0  0  0  0
M  END
$$$$
