butane_opt
 OpenBabel08242015413D

 14 13  0  0  0  0  0  0  0  0999 V2000
   -3.9116    0.2438    0.0275 C   0  0  0  0  0  0  0  0  0  0  0  0
   -2.7271   -0.5988    0.0602 C   0  0  0  0  0  0  0  0  0  0  0  0
   -4.8592   -0.3151   -0.1375 H   0  0  0  0  0  0  0  0  0  0  0  0
   -3.8326    0.6826   -0.7994 H   0  0  0  0  0  0  0  0  0  0  0  0
   -4.1222    1.0392    0.9447 H   0  0  0  0  0  0  0  0  0  0  0  0
   -1.4273    0.2129   -0.0155 C   0  0  0  0  0  0  0  0  0  0  0  0
   -2.7936   -1.2880   -0.8419 H   0  0  0  0  0  0  0  0  0  0  0  0
   -2.7461   -1.1834    0.9370 H   0  0  0  0  0  0  0  0  0  0  0  0
   -0.1413   -0.7173    0.0478 C   0  0  0  0  0  0  0  0  0  0  0  0
   -1.3704    0.8976    0.8250 H   0  0  0  0  0  0  0  0  0  0  0  0
   -1.3548    0.8858   -0.9883 H   0  0  0  0  0  0  0  0  0  0  0  0
   -0.0580   -1.3433    0.9396 H   0  0  0  0  0  0  0  0  0  0  0  0
    0.7270   -0.1623   -0.0412 H   0  0  0  0  0  0  0  0  0  0  0  0
   -0.1137   -1.3938   -0.8166 H   0  0  0  0  0  0  0  0  0  0  0  0
  1  2  1  0  0  0  0
  1  5  1  0  0  0  0
  2  8  1  0  0  0  0
  3  1  1  0  0  0  0
  4  1  1  0  0  0  0
  6  9  1  0  0  0  0
  6  2  1  0  0  0  0
  6 10  1  0  0  0  0
  7  2  1  0  0  0  0
  9 12  1  0  0  0  0
 11  6  1  0  0  0  0
 13  9  1  0  0  0  0
 14  9  1  0  0  0  0
M  END
$$$$
