14
butane_opt
C  -3.970579   0.292262  -0.001958
C  -2.705415  -0.648250   0.040772
H  -4.862159  -0.277824   0.225907
H  -4.096841   1.072462  -0.952048
H  -3.921464   0.790218   0.712909
C  -1.385380   0.162102   0.032162
H  -2.667544  -1.278476  -0.779158
H  -2.725735  -1.290545   0.946000
C  -0.155305  -0.670321   0.029807
H  -1.409606   0.872542   0.955216
H  -1.385915   0.705136  -0.800313
H  -0.109956  -1.213534   0.844357
H   0.850977   0.000468  -0.009124
H  -0.126802  -1.460462  -0.948009
