butane_opt
 OpenBabel08242015413D

 14 13  0  0  0  0  0  0  0  0999 V2000
   -3.9678    0.2701   -0.0271 C   0  0  0  0  0  0  0  0  0  0  0  0
   -2.7149   -0.6260    0.0995 C   0  0  0  0  0  0  0  0  0  0  0  0
   -4.8212   -0.2687   -0.1154 H   0  0  0  0  0  0  0  0  0  0  0  0
   -3.9342    0.9234   -1.0024 H   0  0  0  0  0  0  0  0  0  0  0  0
   -4.1381    0.9408    0.7799 H   0  0  0  0  0  0  0  0  0  0  0  0
   -1.3763    0.1653    0.0669 C   0  0  0  0  0  0  0  0  0  0  0  0
   -2.7112   -1.2301   -0.7132 H   0  0  0  0  0  0  0  0  0  0  0  0
   -2.7006   -1.2831    1.0060 H   0  0  0  0  0  0  0  0  0  0  0  0
   -0.1388   -0.6890   -0.0303 C   0  0  0  0  0  0  0  0  0  0  0  0
   -1.3356    0.9330    0.9964 H   0  0  0  0  0  0  0  0  0  0  0  0
   -1.4126    0.7394   -0.7357 H   0  0  0  0  0  0  0  0  0  0  0  0
   -0.0841   -1.3164    0.8557 H   0  0  0  0  0  0  0  0  0  0  0  0
    0.7457   -0.0682   -0.0784 H   0  0  0  0  0  0  0  0  0  0  0  0
   -0.2502   -1.2887   -0.8628 H   0  0  0  0  0  0  0  0  0  0  0  0
  1  2  1  0  0  0  0
  1  5  1  0  0  0  0
  2  8  1  0  0  0  0
  3  1  1  0  0  0  0
  4  1  1  0  0  0  0
  6  2  1  0  0  0  0
  6 10  1  0  0  0  0
  7  2  1  0  0  0  0
  9  6  1  0  0  0  0
  9 12  1  0  0  0  0
 11  6  1  0  0  0  0
 13  9  1  0  0  0  0
 14  9  1  0  0  0  0
M  END
$$$$
