14
butane_opt
C  -3.942251   0.276162  -0.012201
C  -2.693476  -0.631707   0.063740
H  -4.814345  -0.291568   0.084237
H  -3.961922   0.943383  -0.950889
H  -4.012211   0.901910   0.819112
C  -1.397672   0.167441   0.048630
H  -2.717352  -1.330750  -0.796582
H  -2.719815  -1.239354   0.908892
C  -0.174503  -0.680621   0.004095
H  -1.348049   0.897580   0.949456
H  -1.425390   0.806643  -0.842772
H  -0.092481  -1.323078   0.921610
H   0.744083  -0.064647  -0.073735
H  -0.193946  -1.336135  -0.828630
