14
butane_opt
C  -3.917582   0.265075   0.075324
C  -2.713784  -0.616084  -0.032255
H  -4.870579  -0.353511   0.162201
H  -4.014220   0.893165  -0.838721
H  -3.823627   0.876508   0.947440
C  -1.409364   0.202944  -0.029561
H  -2.719927  -1.372875  -0.967151
H  -2.612418  -1.136039   0.734746
C  -0.183119  -0.708265   0.084915
H  -1.363789   0.810026   0.807577
H  -1.422239   0.858467  -0.964339
H  -0.180156  -1.404873   1.053079
H   0.744331  -0.123985  -0.032741
H  -0.074357  -1.233747  -0.633265
