14
butane_opt
C  -3.970615   0.287640  -0.039386
C  -2.701045  -0.627955   0.114582
H  -4.871704  -0.294753  -0.219492
H  -3.894403   0.754075  -0.852746
H  -4.141593   1.009420   0.842140
C  -1.385846   0.153863   0.073534
H  -2.604630  -1.274001  -0.701386
H  -2.829036  -1.293808   1.071681
C  -0.151855  -0.672484  -0.027137
H  -1.312711   0.802277   0.904435
H  -1.400326   0.884273  -0.873384
H  -0.068753  -1.260406   0.809014
H   0.778049  -0.068744  -0.098022
H  -0.176850  -1.423301  -0.893544
