butane_opt
 OpenBabel08242015413D

 14 13  0  0  0  0  0  0  0  0999 V2000
   -3.9500    0.2674    0.0073 C   0  0  0  0  0  0  0  0  0  0  0  0
   -2.6936   -0.6241    0.0446 C   0  0  0  0  0  0  0  0  0  0  0  0
   -4.8936   -0.3367    0.0165 H   0  0  0  0  0  0  0  0  0  0  0  0
   -3.9705    0.9134   -0.9327 H   0  0  0  0  0  0  0  0  0  0  0  0
   -3.9660    0.8749    0.7870 H   0  0  0  0  0  0  0  0  0  0  0  0
   -1.4110    0.2074    0.0354 C   0  0  0  0  0  0  0  0  0  0  0  0
   -2.7312   -1.3518   -0.8383 H   0  0  0  0  0  0  0  0  0  0  0  0
   -2.6973   -1.2764    0.9746 H   0  0  0  0  0  0  0  0  0  0  0  0
   -0.1656   -0.6998    0.0138 C   0  0  0  0  0  0  0  0  0  0  0  0
   -1.3633    0.9896    0.9689 H   0  0  0  0  0  0  0  0  0  0  0  0
   -1.3418    0.6900   -0.7896 H   0  0  0  0  0  0  0  0  0  0  0  0
   -0.0050   -1.4096    0.9830 H   0  0  0  0  0  0  0  0  0  0  0  0
    0.7375   -0.1384   -0.1775 H   0  0  0  0  0  0  0  0  0  0  0  0
   -0.1525   -1.2312   -0.7696 H   0  0  0  0  0  0  0  0  0  0  0  0
  1  3  1  0  0  0  0
  1  2  1  0  0  0  0
  1  5  1  0  0  0  0
  2  8  1  0  0  0  0
  4  1  1  0  0  0  0
  6  2  1  0  0  0  0
  6 10  1  0  0  0  0
  7  2  1  0  0  0  0
  9  6  1  0  0  0  0
  9 12  1  0  0  0  0
 11  6  1  0  0  0  0
 13  9  1  0  0  0  0
 14  9  1  0  0  0  0
M  END
$$$$
