butane_opt
 OpenBabel08242015413D

 14 13  0  0  0  0  0  0  0  0999 V2000
   -3.9227    0.2644    0.0196 C   0  0  0  0  0  0  0  0  0  0  0  0
   -2.6943   -0.6315    0.0345 C   0  0  0  0  0  0  0  0  0  0  0  0
   -4.8152   -0.2511   -0.0125 H   0  0  0  0  0  0  0  0  0  0  0  0
   -3.9941    0.8616   -0.8587 H   0  0  0  0  0  0  0  0  0  0  0  0
   -3.9677    1.0204    0.9436 H   0  0  0  0  0  0  0  0  0  0  0  0
   -1.4253    0.1629    0.0226 C   0  0  0  0  0  0  0  0  0  0  0  0
   -2.6088   -1.3561   -0.8924 H   0  0  0  0  0  0  0  0  0  0  0  0
   -2.7796   -1.1805    0.8645 H   0  0  0  0  0  0  0  0  0  0  0  0
   -0.1667   -0.6729    0.0410 C   0  0  0  0  0  0  0  0  0  0  0  0
   -1.3672    0.8466    0.8754 H   0  0  0  0  0  0  0  0  0  0  0  0
   -1.3799    0.8814   -0.9341 H   0  0  0  0  0  0  0  0  0  0  0  0
   -0.0456   -1.4623    1.0198 H   0  0  0  0  0  0  0  0  0  0  0  0
    0.7513   -0.0828   -0.1425 H   0  0  0  0  0  0  0  0  0  0  0  0
   -0.3119   -1.2261   -0.7976 H   0  0  0  0  0  0  0  0  0  0  0  0
  1  2  1  0  0  0  0
  1  5  1  0  0  0  0
  2  8  1  0  0  0  0
  3  1  1  0  0  0  0
  4  1  1  0  0  0  0
  6  2  1  0  0  0  0
  6  9  1  0  0  0  0
  6 10  1  0  0  0  0
  7  2  1  0  0  0  0
  9 12  1  0  0  0  0
 11  6  1  0  0  0  0
 13  9  1  0  0  0  0
 14  9  1  0  0  0  0
M  END
$$$$
