butane_opt
 OpenBabel08242015413D

 14 13  0  0  0  0  0  0  0  0999 V2000
   -3.9461    0.2672   -0.0069 C   0  0  0  0  0  0  0  0  0  0  0  0
   -2.6889   -0.6232    0.0673 C   0  0  0  0  0  0  0  0  0  0  0  0
   -4.8290   -0.2951   -0.0257 H   0  0  0  0  0  0  0  0  0  0  0  0
   -3.9570    0.9325   -0.9181 H   0  0  0  0  0  0  0  0  0  0  0  0
   -3.9827    0.9659    0.8478 H   0  0  0  0  0  0  0  0  0  0  0  0
   -1.4095    0.1646    0.0450 C   0  0  0  0  0  0  0  0  0  0  0  0
   -2.6774   -1.3122   -0.7889 H   0  0  0  0  0  0  0  0  0  0  0  0
   -2.7120   -1.2241    0.9423 H   0  0  0  0  0  0  0  0  0  0  0  0
   -0.1682   -0.6809    0.0090 C   0  0  0  0  0  0  0  0  0  0  0  0
   -1.4071    0.8377    0.8869 H   0  0  0  0  0  0  0  0  0  0  0  0
   -1.3703    0.7683   -0.8578 H   0  0  0  0  0  0  0  0  0  0  0  0
   -0.0853   -1.2859    0.9013 H   0  0  0  0  0  0  0  0  0  0  0  0
    0.7779   -0.0642   -0.0962 H   0  0  0  0  0  0  0  0  0  0  0  0
   -0.2357   -1.3144   -0.8286 H   0  0  0  0  0  0  0  0  0  0  0  0
  1  2  1  0  0  0  0
  1  5  1  0  0  0  0
  2  8  1  0  0  0  0
  3  1  1  0  0  0  0
  4  1  1  0  0  0  0
  6  2  1  0  0  0  0
  6 10  1  0  0  0  0
  7  2  1  0  0  0  0
  9  6  1  0  0  0  0
  9 12  1  0  0  0  0
 11  6  1  0  0  0  0
 13  9  1  0  0  0  0
 14  9  1  0  0  0  0
M  END
$$$$
