butane_opt
 OpenBabel08242015413D

 14 13  0  0  0  0  0  0  0  0999 V2000
   -3.9268    0.2497    0.0537 C   0  0  0  0  0  0  0  0  0  0  0  0
   -2.7298   -0.5903   -0.0189 C   0  0  0  0  0  0  0  0  0  0  0  0
   -4.8639   -0.3941   -0.0301 H   0  0  0  0  0  0  0  0  0  0  0  0
   -3.9455    0.7259   -0.7033 H   0  0  0  0  0  0  0  0  0  0  0  0
   -3.8792    1.0960    1.0378 H   0  0  0  0  0  0  0  0  0  0  0  0
   -1.4157    0.1940   -0.0324 C   0  0  0  0  0  0  0  0  0  0  0  0
   -2.7719   -1.3212   -0.9064 H   0  0  0  0  0  0  0  0  0  0  0  0
   -2.6873   -1.2184    0.8658 H   0  0  0  0  0  0  0  0  0  0  0  0
   -0.1316   -0.7152    0.0847 C   0  0  0  0  0  0  0  0  0  0  0  0
   -1.5054    0.9370    0.8497 H   0  0  0  0  0  0  0  0  0  0  0  0
   -1.3292    0.8632   -0.9037 H   0  0  0  0  0  0  0  0  0  0  0  0
   -0.1254   -1.5357    1.0821 H   0  0  0  0  0  0  0  0  0  0  0  0
    0.7731   -0.1691   -0.2586 H   0  0  0  0  0  0  0  0  0  0  0  0
   -0.2236   -1.1223   -0.6155 H   0  0  0  0  0  0  0  0  0  0  0  0
  1  5  1  0  0  0  0
  2  1  1  0  0  0  0
  2  8  1  0  0  0  0
  3  1  1  0  0  0  0
  4  1  1  0  0  0  0
  6  2  1  0  0  0  0
  6  9  1  0  0  0  0
  6 10  1  0  0  0  0
  7  2  1  0  0  0  0
  9 12  1  0  0  0  0
 11  6  1  0  0  0  0
 13  9  1  0  0  0  0
 14  9  1  0  0  0  0
M  END
$$$$
