butane_opt
 OpenBabel08242015413D

 14 13  0  0  0  0  0  0  0  0999 V2000
   -3.9554    0.2586    0.0678 C   0  0  0  0  0  0  0  0  0  0  0  0
   -2.7093   -0.6235   -0.0344 C   0  0  0  0  0  0  0  0  0  0  0  0
   -4.8094   -0.3206    0.0191 H   0  0  0  0  0  0  0  0  0  0  0  0
   -4.0077    0.8151   -0.8152 H   0  0  0  0  0  0  0  0  0  0  0  0
   -3.9164    1.1061    1.0274 H   0  0  0  0  0  0  0  0  0  0  0  0
   -1.4046    0.1917   -0.0274 C   0  0  0  0  0  0  0  0  0  0  0  0
   -2.7806   -1.3397   -0.9167 H   0  0  0  0  0  0  0  0  0  0  0  0
   -2.7744   -1.2184    0.8439 H   0  0  0  0  0  0  0  0  0  0  0  0
   -0.1452   -0.6920    0.0892 C   0  0  0  0  0  0  0  0  0  0  0  0
   -1.4154    0.8937    0.8060 H   0  0  0  0  0  0  0  0  0  0  0  0
   -1.3129    0.8097   -0.8873 H   0  0  0  0  0  0  0  0  0  0  0  0
    0.0613   -1.5502    1.1206 H   0  0  0  0  0  0  0  0  0  0  0  0
    0.7194   -0.1395   -0.2190 H   0  0  0  0  0  0  0  0  0  0  0  0
   -0.2189   -1.1368   -0.6424 H   0  0  0  0  0  0  0  0  0  0  0  0
  1  5  1  0  0  0  0
  2  6  1  0  0  0  0
  2  1  1  0  0  0  0
  2  8  1  0  0  0  0
  3  1  1  0  0  0  0
  4  1  1  0  0  0  0
  6  9  1  0  0  0  0
  6 10  1  0  0  0  0
  7  2  1  0  0  0  0
  9 12  1  0  0  0  0
 11  6  1  0  0  0  0
 13  9  1  0  0  0  0
 14  9  1  0  0  0  0
M  END
$$$$
