14
butane_opt
C  -3.922693   0.264419   0.019621
C  -2.694330  -0.631458   0.034479
H  -4.815207  -0.251122  -0.012504
H  -3.994084   0.861590  -0.858699
H  -3.967746   1.020362   0.943592
C  -1.425292   0.162927   0.022573
H  -2.608758  -1.356058  -0.892399
H  -2.779598  -1.180504   0.864522
C  -0.166749  -0.672921   0.040965
H  -1.367161   0.846610   0.875356
H  -1.379942   0.881414  -0.934117
H  -0.045603  -1.462324   1.019838
H   0.751334  -0.082789  -0.142502
H  -0.311943  -1.226087  -0.797603
