14
butane_opt
C  -3.943819   0.261328  -0.042050
C  -2.715117  -0.595586   0.120062
H  -4.837281  -0.356274  -0.125241
H  -3.778619   0.791830  -0.905101
H  -4.141014   0.932283   0.814323
C  -1.407727   0.192582   0.060088
H  -2.810251  -1.280805  -0.711449
H  -2.722195  -1.227374   0.995183
C  -0.139400  -0.698389  -0.020652
H  -1.318991   0.888809   0.925565
H  -1.422510   0.764485  -0.821504
H  -0.043847  -1.334310   0.872288
H   0.732120  -0.137934  -0.090553
H  -0.209896  -1.431985  -0.918501
