14
butane_opt
C  -3.949973   0.267448   0.007283
C  -2.693564  -0.624078   0.044599
H  -4.893601  -0.336686   0.016536
H  -3.970493   0.913380  -0.932744
H  -3.965983   0.874924   0.786954
C  -1.411040   0.207371   0.035390
H  -2.731225  -1.351758  -0.838337
H  -2.697298  -1.276408   0.974630
C  -0.165566  -0.699810   0.013850
H  -1.363288   0.989574   0.968926
H  -1.341797   0.689995  -0.789568
H  -0.004999  -1.409593   0.982969
H   0.737512  -0.138380  -0.177530
H  -0.152491  -1.231232  -0.769574
