14
butane_opt
C  -3.955381   0.258635   0.067792
C  -2.709270  -0.623460  -0.034408
H  -4.809371  -0.320586   0.019119
H  -4.007736   0.815117  -0.815198
H  -3.916437   1.106113   1.027392
C  -1.404600   0.191722  -0.027417
H  -2.780559  -1.339739  -0.916727
H  -2.774423  -1.218449   0.843930
C  -0.145168  -0.692031   0.089237
H  -1.415385   0.893747   0.805986
H  -1.312911   0.809685  -0.887326
H   0.061303  -1.550239   1.120559
H   0.719368  -0.139503  -0.219033
H  -0.218869  -1.136764  -0.642373
