butane_opt
 OpenBabel08242015413D

 14 13  0  0  0  0  0  0  0  0999 V2000
   -3.9289    0.2750   -0.0067 C   0  0  0  0  0  0  0  0  0  0  0  0
   -2.6964   -0.6037    0.0530 C   0  0  0  0  0  0  0  0  0  0  0  0
   -4.8541   -0.3226    0.1558 H   0  0  0  0  0  0  0  0  0  0  0  0
   -3.9636    1.0053   -1.0110 H   0  0  0  0  0  0  0  0  0  0  0  0
   -3.9017    0.7547    0.7567 H   0  0  0  0  0  0  0  0  0  0  0  0
   -1.4141    0.1601    0.0382 C   0  0  0  0  0  0  0  0  0  0  0  0
   -2.7459   -1.2528   -0.7541 H   0  0  0  0  0  0  0  0  0  0  0  0
   -2.7136   -1.2622    0.9325 H   0  0  0  0  0  0  0  0  0  0  0  0
   -0.1658   -0.6861    0.0186 C   0  0  0  0  0  0  0  0  0  0  0  0
   -1.3113    0.9351    0.9620 H   0  0  0  0  0  0  0  0  0  0  0  0
   -1.4497    0.6715   -0.7742 H   0  0  0  0  0  0  0  0  0  0  0  0
   -0.1985   -1.2468    0.8553 H   0  0  0  0  0  0  0  0  0  0  0  0
    0.7728   -0.0884   -0.0400 H   0  0  0  0  0  0  0  0  0  0  0  0
   -0.2025   -1.3975   -0.9045 H   0  0  0  0  0  0  0  0  0  0  0  0
  1  2  1  0  0  0  0
  1  3  1  0  0  0  0
  1  5  1  0  0  0  0
  2  8  1  0  0  0  0
  4  1  1  0  0  0  0
  6  2  1  0  0  0  0
  6 10  1  0  0  0  0
  7  2  1  0  0  0  0
  9  6  1  0  0  0  0
  9 12  1  0  0  0  0
 11  6  1  0  0  0  0
 13  9  1  0  0  0  0
 14  9  1  0  0  0  0
M  END
$$$$
