butane_opt
 OpenBabel08242015413D

 14 13  0  0  0  0  0  0  0  0999 V2000
   -3.9423    0.2647    0.0243 C   0  0  0  0  0  0  0  0  0  0  0  0
   -2.7119   -0.6093    0.0266 C   0  0  0  0  0  0  0  0  0  0  0  0
   -4.8739   -0.3461    0.0042 H   0  0  0  0  0  0  0  0  0  0  0  0
   -3.9388    0.8271   -0.8498 H   0  0  0  0  0  0  0  0  0  0  0  0
   -3.9714    0.9194    0.8705 H   0  0  0  0  0  0  0  0  0  0  0  0
   -1.4040    0.1920    0.0193 C   0  0  0  0  0  0  0  0  0  0  0  0
   -2.7471   -1.3156   -0.8516 H   0  0  0  0  0  0  0  0  0  0  0  0
   -2.7226   -1.2182    0.9414 H   0  0  0  0  0  0  0  0  0  0  0  0
   -0.1447   -0.7003    0.0321 C   0  0  0  0  0  0  0  0  0  0  0  0
   -1.4430    0.8554    0.8577 H   0  0  0  0  0  0  0  0  0  0  0  0
   -1.3919    0.8625   -0.9000 H   0  0  0  0  0  0  0  0  0  0  0  0
   -0.0605   -1.3792    0.9859 H   0  0  0  0  0  0  0  0  0  0  0  0
    0.7760   -0.1314   -0.0479 H   0  0  0  0  0  0  0  0  0  0  0  0
   -0.2148   -1.3144   -0.7892 H   0  0  0  0  0  0  0  0  0  0  0  0
  1  2  1  0  0  0  0
  1  5  1  0  0  0  0
  2  8  1  0  0  0  0
  3  1  1  0  0  0  0
  4  1  1  0  0  0  0
  6  2  1  0  0  0  0
  6  9  1  0  0  0  0
  6 10  1  0  0  0  0
  7  2  1  0  0  0  0
  9 12  1  0  0  0  0
 11  6  1  0  0  0  0
 13  9  1  0  0  0  0
 14  9  1  0  0  0  0
M  END
$$$$
