butane_opt
 OpenBabel08242015413D

 14 13  0  0  0  0  0  0  0  0999 V2000
   -3.9290    0.2423    0.0376 C   0  0  0  0  0  0  0  0  0  0  0  0
   -2.7054   -0.5930    0.0130 C   0  0  0  0  0  0  0  0  0  0  0  0
   -4.8687   -0.3670   -0.0328 H   0  0  0  0  0  0  0  0  0  0  0  0
   -3.8629    0.7395   -0.7301 H   0  0  0  0  0  0  0  0  0  0  0  0
   -3.9461    1.1495    1.0520 H   0  0  0  0  0  0  0  0  0  0  0  0
   -1.3998    0.1936   -0.0160 C   0  0  0  0  0  0  0  0  0  0  0  0
   -2.7916   -1.2801   -0.8749 H   0  0  0  0  0  0  0  0  0  0  0  0
   -2.6868   -1.1560    0.8911 H   0  0  0  0  0  0  0  0  0  0  0  0
   -0.1626   -0.7150    0.0614 C   0  0  0  0  0  0  0  0  0  0  0  0
   -1.4583    0.7652    0.7281 H   0  0  0  0  0  0  0  0  0  0  0  0
   -1.4426    0.9192   -0.9957 H   0  0  0  0  0  0  0  0  0  0  0  0
   -0.1871   -1.3985    1.0236 H   0  0  0  0  0  0  0  0  0  0  0  0
    0.7749   -0.0868   -0.0136 H   0  0  0  0  0  0  0  0  0  0  0  0
   -0.1803   -1.3029   -0.7284 H   0  0  0  0  0  0  0  0  0  0  0  0
  1  5  1  0  0  0  0
  2  1  1  0  0  0  0
  2  8  1  0  0  0  0
  3  1  1  0  0  0  0
  4  1  1  0  0  0  0
  6  2  1  0  0  0  0
  6  9  1  0  0  0  0
  6 10  1  0  0  0  0
  7  2  1  0  0  0  0
  9 12  1  0  0  0  0
 11  6  1  0  0  0  0
 13  9  1  0  0  0  0
 14  9  1  0  0  0  0
M  END
$$$$
