butane_opt
 OpenBabel08242015413D

 14 13  0  0  0  0  0  0  0  0999 V2000
   -3.9355    0.2868   -0.0250 C   0  0  0  0  0  0  0  0  0  0  0  0
   -2.6958   -0.6261    0.0757 C   0  0  0  0  0  0  0  0  0  0  0  0
   -4.8648   -0.2586    0.2325 H   0  0  0  0  0  0  0  0  0  0  0  0
   -4.0199    1.1184   -1.0606 H   0  0  0  0  0  0  0  0  0  0  0  0
   -3.9248    0.7148    0.7062 H   0  0  0  0  0  0  0  0  0  0  0  0
   -1.3924    0.1279    0.0706 C   0  0  0  0  0  0  0  0  0  0  0  0
   -2.6824   -1.2999   -0.8200 H   0  0  0  0  0  0  0  0  0  0  0  0
   -2.7012   -1.2457    0.9653 H   0  0  0  0  0  0  0  0  0  0  0  0
   -0.1705   -0.6626   -0.0137 C   0  0  0  0  0  0  0  0  0  0  0  0
   -1.3371    0.8602    0.9728 H   0  0  0  0  0  0  0  0  0  0  0  0
   -1.4760    0.8038   -0.8485 H   0  0  0  0  0  0  0  0  0  0  0  0
   -0.2237   -1.1763    0.8066 H   0  0  0  0  0  0  0  0  0  0  0  0
    0.7548   -0.0432    0.1582 H   0  0  0  0  0  0  0  0  0  0  0  0
   -0.2265   -1.4576   -0.9892 H   0  0  0  0  0  0  0  0  0  0  0  0
  1  2  1  0  0  0  0
  1  3  1  0  0  0  0
  1  5  1  0  0  0  0
  2  8  1  0  0  0  0
  4  1  1  0  0  0  0
  6  2  1  0  0  0  0
  6 10  1  0  0  0  0
  7  2  1  0  0  0  0
  9  6  1  0  0  0  0
  9 13  1  0  0  0  0
  9 12  1  0  0  0  0
 11  6  1  0  0  0  0
 14  9  1  0  0  0  0
M  END
$$$$
