14
butane_opt
C  -3.952868   0.279988  -0.027690
C  -2.704593  -0.645285   0.089656
H  -4.795437  -0.234486  -0.033108
H  -3.946821   1.021360  -1.001453
H  -4.124158   0.891717   0.694327
C  -1.397676   0.170160   0.092925
H  -2.778530  -1.289771  -0.754387
H  -2.705120  -1.256419   0.910347
C  -0.162877  -0.678846  -0.032024
H  -1.287895   0.870959   0.978086
H  -1.366726   0.719967  -0.732890
H   0.017116  -1.391543   0.915852
H   0.826198  -0.016693  -0.145843
H  -0.268083  -1.278293  -0.865900
