14
butane_opt
C  -3.921028   0.252213   0.051216
C  -2.697029  -0.604083  -0.028297
H  -4.822403  -0.397281   0.343843
H  -4.081343   0.909109  -0.812094
H  -3.815048   0.822102   0.875737
C  -1.422386   0.217717  -0.031258
H  -2.713198  -1.375060  -0.921476
H  -2.589218  -1.143732   0.825604
C  -0.174346  -0.707905   0.072731
H  -1.421972   0.891409   0.841866
H  -1.397476   0.781827  -0.906017
H  -0.232074  -1.420315   1.053250
H   0.719928  -0.141387   0.086394
H  -0.080503  -1.292480  -0.716117
