14
butane_opt
C  -3.919144   0.238550  -0.003090
C  -2.698766  -0.597899   0.065205
H  -4.856173  -0.374349  -0.117654
H  -3.823393   0.857494  -0.939539
H  -3.975203   1.006804   0.903127
C  -1.428502   0.197773   0.028023
H  -2.696437  -1.191185  -0.765789
H  -2.672878  -1.321034   1.048282
C  -0.174508  -0.701293   0.009335
H  -1.355294   0.936873   0.952077
H  -1.466579   0.804431  -0.806813
H  -0.035525  -1.338548   0.922001
H   0.676159  -0.158170  -0.051328
H  -0.158117  -1.355915  -0.893491
