14
butane_opt
C  -3.962520   0.278092   0.072468
C  -2.710796  -0.623515  -0.034011
H  -4.834873  -0.281369   0.210967
H  -4.095049   0.950216  -0.829460
H  -3.961174   0.851895   0.875457
C  -1.400795   0.161257  -0.021232
H  -2.795803  -1.430284  -0.960503
H  -2.578109  -1.140450   0.741028
C  -0.134972  -0.674925   0.081134
H  -1.410753   0.777485   0.789477
H  -1.335144   0.826270  -0.923001
H  -0.139805  -1.437971   1.100472
H   0.773720  -0.054333   0.007498
H  -0.147986  -1.214649  -0.747403
