butane_opt
 OpenBabel08242015413D

 14 13  0  0  0  0  0  0  0  0999 V2000
   -3.9210    0.2522    0.0512 C   0  0  0  0  0  0  0  0  0  0  0  0
   -2.6970   -0.6041   -0.0283 C   0  0  0  0  0  0  0  0  0  0  0  0
   -4.8224   -0.3973    0.3438 H   0  0  0  0  0  0  0  0  0  0  0  0
   -4.0813    0.9091   -0.8121 H   0  0  0  0  0  0  0  0  0  0  0  0
   -3.8150    0.8221    0.8757 H   0  0  0  0  0  0  0  0  0  0  0  0
   -1.4224    0.2177   -0.0313 C   0  0  0  0  0  0  0  0  0  0  0  0
   -2.7132   -1.3751   -0.9215 H   0  0  0  0  0  0  0  0  0  0  0  0
   -2.5892   -1.1437    0.8256 H   0  0  0  0  0  0  0  0  0  0  0  0
   -0.1743   -0.7079    0.0727 C   0  0  0  0  0  0  0  0  0  0  0  0
   -1.4220    0.8914    0.8419 H   0  0  0  0  0  0  0  0  0  0  0  0
   -1.3975    0.7818   -0.9060 H   0  0  0  0  0  0  0  0  0  0  0  0
   -0.2321   -1.4203    1.0533 H   0  0  0  0  0  0  0  0  0  0  0  0
    0.7199   -0.1414    0.0864 H   0  0  0  0  0  0  0  0  0  0  0  0
   -0.0805   -1.2925   -0.7161 H   0  0  0  0  0  0  0  0  0  0  0  0
  1  3  1  0  0  0  0
  1  5  1  0  0  0  0
  2  1  1  0  0  0  0
  2  8  1  0  0  0  0
  4  1  1  0  0  0  0
  6  2  1  0  0  0  0
  6  9  1  0  0  0  0
  6 10  1  0  0  0  0
  7  2  1  0  0  0  0
  9 13  1  0  0  0  0
  9 12  1  0  0  0  0
 11  6  1  0  0  0  0
 14  9  1  0  0  0  0
M  END
$$$$
