butane_opt
 OpenBabel08242015413D

 14 13  0  0  0  0  0  0  0  0999 V2000
   -3.9317    0.2760    0.0102 C   0  0  0  0  0  0  0  0  0  0  0  0
   -2.6914   -0.6163    0.0315 C   0  0  0  0  0  0  0  0  0  0  0  0
   -4.8210   -0.2981    0.0434 H   0  0  0  0  0  0  0  0  0  0  0  0
   -3.9961    0.9301   -0.9742 H   0  0  0  0  0  0  0  0  0  0  0  0
   -4.0338    0.9006    0.8383 H   0  0  0  0  0  0  0  0  0  0  0  0
   -1.4008    0.1560    0.0310 C   0  0  0  0  0  0  0  0  0  0  0  0
   -2.7074   -1.2935   -0.8041 H   0  0  0  0  0  0  0  0  0  0  0  0
   -2.6635   -1.2429    0.9386 H   0  0  0  0  0  0  0  0  0  0  0  0
   -0.1781   -0.6786    0.0265 C   0  0  0  0  0  0  0  0  0  0  0  0
   -1.3349    0.9368    0.9565 H   0  0  0  0  0  0  0  0  0  0  0  0
   -1.4289    0.6586   -0.7335 H   0  0  0  0  0  0  0  0  0  0  0  0
   -0.1431   -1.4232    1.0124 H   0  0  0  0  0  0  0  0  0  0  0  0
    0.8082   -0.0110   -0.2425 H   0  0  0  0  0  0  0  0  0  0  0  0
   -0.2773   -1.2593   -0.7870 H   0  0  0  0  0  0  0  0  0  0  0  0
  1  2  1  0  0  0  0
  1  3  1  0  0  0  0
  1  5  1  0  0  0  0
  2  8  1  0  0  0  0
  4  1  1  0  0  0  0
  6  2  1  0  0  0  0
  6 10  1  0  0  0  0
  7  2  1  0  0  0  0
  9  6  1  0  0  0  0
  9 12  1  0  0  0  0
 11  6  1  0  0  0  0
 13  9  1  0  0  0  0
 14  9  1  0  0  0  0
M  END
$$$$
