14
butane_opt
C  -3.923619   0.237584   0.045009
C  -2.700814  -0.586196  -0.016012
H  -4.841136  -0.389851   0.013783
H  -3.974439   0.812390  -0.781867
H  -3.842428   1.021780   0.985845
C  -1.436018   0.211908   0.006768
H  -2.677299  -1.319437  -0.927214
H  -2.760305  -1.247263   0.871762
C  -0.163652  -0.706309   0.053480
H  -1.420604   0.846298   0.856405
H  -1.357477   0.805653  -0.886182
H  -0.017320  -1.565370   1.144472
H   0.694628  -0.142792  -0.230122
H  -0.136836  -1.170017  -0.649288
