butane_opt
 OpenBabel08242015413D

 14 13  0  0  0  0  0  0  0  0999 V2000
   -3.9320    0.2383   -0.0068 C   0  0  0  0  0  0  0  0  0  0  0  0
   -2.6913   -0.5928    0.0893 C   0  0  0  0  0  0  0  0  0  0  0  0
   -4.8298   -0.3306   -0.2171 H   0  0  0  0  0  0  0  0  0  0  0  0
   -3.8092    0.7027   -0.7557 H   0  0  0  0  0  0  0  0  0  0  0  0
   -4.0417    1.0278    0.9117 H   0  0  0  0  0  0  0  0  0  0  0  0
   -1.4232    0.2191    0.0147 C   0  0  0  0  0  0  0  0  0  0  0  0
   -2.7177   -1.2585   -0.7317 H   0  0  0  0  0  0  0  0  0  0  0  0
   -2.7954   -1.3209    1.0361 H   0  0  0  0  0  0  0  0  0  0  0  0
   -0.1520   -0.7153   -0.0093 C   0  0  0  0  0  0  0  0  0  0  0  0
   -1.4084    0.9658    0.8776 H   0  0  0  0  0  0  0  0  0  0  0  0
   -1.4494    0.8299   -0.8718 H   0  0  0  0  0  0  0  0  0  0  0  0
   -0.1824   -1.3836    0.9477 H   0  0  0  0  0  0  0  0  0  0  0  0
    0.7162   -0.1613    0.0594 H   0  0  0  0  0  0  0  0  0  0  0  0
   -0.1153   -1.3507   -0.8494 H   0  0  0  0  0  0  0  0  0  0  0  0
  1  2  1  0  0  0  0
  1  5  1  0  0  0  0
  2  8  1  0  0  0  0
  3  1  1  0  0  0  0
  4  1  1  0  0  0  0
  6  2  1  0  0  0  0
  6 10  1  0  0  0  0
  7  2  1  0  0  0  0
  9  6  1  0  0  0  0
  9 13  1  0  0  0  0
  9 12  1  0  0  0  0
 11  6  1  0  0  0  0
 14  9  1  0  0  0  0
M  END
$$$$
