14
butane_opt
C  -3.961049   0.259107  -0.018550
C  -2.706073  -0.622078   0.090247
H  -4.879396  -0.324450   0.000919
H  -3.932738   0.856280  -0.955943
H  -3.957225   0.914782   0.823516
C  -1.389542   0.218623   0.022755
H  -2.739856  -1.165351  -0.656359
H  -2.759259  -1.333765   1.059194
C  -0.154582  -0.703638  -0.000277
H  -1.429721   0.931446   0.871808
H  -1.327800   0.790827  -0.819045
H  -0.107268  -1.207526   0.766455
H   0.748230  -0.146670   0.192614
H  -0.102895  -1.618728  -0.998060
