butane_opt
 OpenBabel08242015413D

 14 13  0  0  0  0  0  0  0  0999 V2000
   -3.9363    0.2568    0.0819 C   0  0  0  0  0  0  0  0  0  0  0  0
   -2.6896   -0.5923   -0.0053 C   0  0  0  0  0  0  0  0  0  0  0  0
   -4.9127   -0.3703    0.0155 H   0  0  0  0  0  0  0  0  0  0  0  0
   -3.9598    0.7826   -0.7425 H   0  0  0  0  0  0  0  0  0  0  0  0
   -3.9607    0.9878    0.9617 H   0  0  0  0  0  0  0  0  0  0  0  0
   -1.3967    0.1762   -0.0589 C   0  0  0  0  0  0  0  0  0  0  0  0
   -2.6743   -1.3760   -0.9438 H   0  0  0  0  0  0  0  0  0  0  0  0
   -2.6939   -1.1607    0.8366 H   0  0  0  0  0  0  0  0  0  0  0  0
   -0.1757   -0.6952    0.0771 C   0  0  0  0  0  0  0  0  0  0  0  0
   -1.4534    0.7580    0.7633 H   0  0  0  0  0  0  0  0  0  0  0  0
   -1.4044    0.9214   -1.0323 H   0  0  0  0  0  0  0  0  0  0  0  0
   -0.2215   -1.3237    1.0309 H   0  0  0  0  0  0  0  0  0  0  0  0
    0.7208   -0.1522    0.1760 H   0  0  0  0  0  0  0  0  0  0  0  0
   -0.0735   -1.2984   -0.7391 H   0  0  0  0  0  0  0  0  0  0  0  0
  1  5  1  0  0  0  0
  2  1  1  0  0  0  0
  2  8  1  0  0  0  0
  3  1  1  0  0  0  0
  4  1  1  0  0  0  0
  6  2  1  0  0  0  0
  6  9  1  0  0  0  0
  6 10  1  0  0  0  0
  7  2  1  0  0  0  0
  9 13  1  0  0  0  0
  9 12  1  0  0  0  0
 11  6  1  0  0  0  0
 14  9  1  0  0  0  0
M  END
$$$$
