14
butane_opt
C  -3.939338   0.238347  -0.028368
C  -2.724483  -0.592914   0.123215
H  -4.797369  -0.260486  -0.190549
H  -3.804829   0.798723  -0.941448
H  -4.103714   0.980582   0.838178
C  -1.397647   0.212639   0.042317
H  -2.775943  -1.324791  -0.748911
H  -2.729539  -1.248543   1.046146
C  -0.149292  -0.715284  -0.015808
H  -1.352987   0.908033   0.881275
H  -1.440978   0.835668  -0.807646
H  -0.045863  -1.291200   0.826958
H   0.728448  -0.138234  -0.017316
H  -0.165206  -1.447091  -0.903809
