butane_opt
 OpenBabel08242015413D

 14 13  0  0  0  0  0  0  0  0999 V2000
   -3.9397    0.2748    0.0523 C   0  0  0  0  0  0  0  0  0  0  0  0
   -2.6718   -0.6359   -0.0043 C   0  0  0  0  0  0  0  0  0  0  0  0
   -4.8280   -0.3102    0.2418 H   0  0  0  0  0  0  0  0  0  0  0  0
   -4.0828    0.9879   -0.8657 H   0  0  0  0  0  0  0  0  0  0  0  0
   -3.8832    0.8734    0.8629 H   0  0  0  0  0  0  0  0  0  0  0  0
   -1.4033    0.1687   -0.0206 C   0  0  0  0  0  0  0  0  0  0  0  0
   -2.7053   -1.4049   -0.9723 H   0  0  0  0  0  0  0  0  0  0  0  0
   -2.6249   -1.1251    0.7819 H   0  0  0  0  0  0  0  0  0  0  0  0
   -0.1920   -0.6815    0.0678 C   0  0  0  0  0  0  0  0  0  0  0  0
   -1.3987    0.8417    0.8470 H   0  0  0  0  0  0  0  0  0  0  0  0
   -1.3058    0.8052   -0.9143 H   0  0  0  0  0  0  0  0  0  0  0  0
   -0.2382   -1.3041    1.0136 H   0  0  0  0  0  0  0  0  0  0  0  0
    0.6815   -0.0997   -0.0153 H   0  0  0  0  0  0  0  0  0  0  0  0
   -0.1469   -1.2510   -0.6908 H   0  0  0  0  0  0  0  0  0  0  0  0
  1  3  1  0  0  0  0
  1  5  1  0  0  0  0
  2  1  1  0  0  0  0
  2  8  1  0  0  0  0
  4  1  1  0  0  0  0
  6  2  1  0  0  0  0
  6  9  1  0  0  0  0
  6 10  1  0  0  0  0
  7  2  1  0  0  0  0
  9 12  1  0  0  0  0
 11  6  1  0  0  0  0
 13  9  1  0  0  0  0
 14  9  1  0  0  0  0
M  END
$$$$
