14
butane_opt
C  -3.936254   0.256779   0.081950
C  -2.689623  -0.592289  -0.005319
H  -4.912677  -0.370276   0.015469
H  -3.959778   0.782583  -0.742461
H  -3.960745   0.987776   0.961682
C  -1.396704   0.176176  -0.058944
H  -2.674308  -1.375972  -0.943756
H  -2.693946  -1.160663   0.836612
C  -0.175674  -0.695180   0.077072
H  -1.453394   0.757971   0.763333
H  -1.404382   0.921384  -1.032345
H  -0.221510  -1.323654   1.030850
H   0.720840  -0.152220   0.176027
H  -0.073548  -1.298381  -0.739061
