butane_opt
 OpenBabel08242015413D

 14 13  0  0  0  0  0  0  0  0999 V2000
   -3.9689    0.2774    0.0331 C   0  0  0  0  0  0  0  0  0  0  0  0
   -2.6992   -0.6274    0.0091 C   0  0  0  0  0  0  0  0  0  0  0  0
   -4.8500   -0.2873   -0.0401 H   0  0  0  0  0  0  0  0  0  0  0  0
   -4.0563    0.8068   -0.8210 H   0  0  0  0  0  0  0  0  0  0  0  0
   -3.9669    0.9386    0.8960 H   0  0  0  0  0  0  0  0  0  0  0  0
   -1.3956    0.1790    0.0164 C   0  0  0  0  0  0  0  0  0  0  0  0
   -2.7662   -1.3893   -0.9316 H   0  0  0  0  0  0  0  0  0  0  0  0
   -2.6494   -1.2065    0.8834 H   0  0  0  0  0  0  0  0  0  0  0  0
   -0.1483   -0.6916    0.0581 C   0  0  0  0  0  0  0  0  0  0  0  0
   -1.4362    0.8448    0.8883 H   0  0  0  0  0  0  0  0  0  0  0  0
   -1.3735    0.8779   -0.9056 H   0  0  0  0  0  0  0  0  0  0  0  0
    0.0330   -1.4460    1.0407 H   0  0  0  0  0  0  0  0  0  0  0  0
    0.8625   -0.0531   -0.2598 H   0  0  0  0  0  0  0  0  0  0  0  0
   -0.2893   -1.1884   -0.7029 H   0  0  0  0  0  0  0  0  0  0  0  0
  1  5  1  0  0  0  0
  2  6  1  0  0  0  0
  2  1  1  0  0  0  0
  2  8  1  0  0  0  0
  3  1  1  0  0  0  0
  4  1  1  0  0  0  0
  6  9  1  0  0  0  0
  6 10  1  0  0  0  0
  7  2  1  0  0  0  0
  9 12  1  0  0  0  0
 11  6  1  0  0  0  0
 13  9  1  0  0  0  0
 14  9  1  0  0  0  0
M  END
$$$$
