butane_opt
 OpenBabel08242015413D

 14 13  0  0  0  0  0  0  0  0999 V2000
   -3.9491    0.2875    0.0554 C   0  0  0  0  0  0  0  0  0  0  0  0
   -2.7114   -0.6460   -0.0021 C   0  0  0  0  0  0  0  0  0  0  0  0
   -4.7893   -0.2506   -0.0606 H   0  0  0  0  0  0  0  0  0  0  0  0
   -4.0627    0.7747   -0.7681 H   0  0  0  0  0  0  0  0  0  0  0  0
   -4.0901    1.0906    1.0350 H   0  0  0  0  0  0  0  0  0  0  0  0
   -1.3798    0.1662   -0.0340 C   0  0  0  0  0  0  0  0  0  0  0  0
   -2.7791   -1.2808   -0.8474 H   0  0  0  0  0  0  0  0  0  0  0  0
   -2.7183   -1.3838    0.9442 H   0  0  0  0  0  0  0  0  0  0  0  0
   -0.1490   -0.6723    0.0793 C   0  0  0  0  0  0  0  0  0  0  0  0
   -1.3982    0.7994    0.8034 H   0  0  0  0  0  0  0  0  0  0  0  0
   -1.3746    0.8577   -1.0004 H   0  0  0  0  0  0  0  0  0  0  0  0
   -0.1954   -1.2697    0.9442 H   0  0  0  0  0  0  0  0  0  0  0  0
    0.7370   -0.1020    0.0162 H   0  0  0  0  0  0  0  0  0  0  0  0
   -0.0852   -1.3221   -0.8008 H   0  0  0  0  0  0  0  0  0  0  0  0
  1  5  1  0  0  0  0
  2  1  1  0  0  0  0
  2  8  1  0  0  0  0
  3  1  1  0  0  0  0
  4  1  1  0  0  0  0
  6  2  1  0  0  0  0
  6  9  1  0  0  0  0
  6 10  1  0  0  0  0
  7  2  1  0  0  0  0
  9 12  1  0  0  0  0
 11  6  1  0  0  0  0
 13  9  1  0  0  0  0
 14  9  1  0  0  0  0
M  END
$$$$
