14
butane_opt
C  -3.954532   0.275518  -0.034925
C  -2.688858  -0.635701   0.059661
H  -4.862774  -0.251588   0.044730
H  -4.033131   0.939076  -0.985365
H  -3.946726   0.945549   0.820775
C  -1.387999   0.176811   0.082392
H  -2.646108  -1.289248  -0.739599
H  -2.752072  -1.326226   0.996446
C  -0.184227  -0.690227  -0.003476
H  -1.249087   0.937438   1.003556
H  -1.409981   0.727423  -0.752760
H  -0.036550  -1.352436   0.906369
H   0.765164  -0.068341  -0.286848
H  -0.267996  -1.234717  -0.808859
