14
butane_opt
C  -3.950605   0.294837   0.046462
C  -2.690694  -0.636714   0.007256
H  -4.819839  -0.287513   0.055096
H  -3.943727   0.883419  -0.839098
H  -3.952775   0.986329   0.907745
C  -1.403005   0.150045  -0.007708
H  -2.724368  -1.438030  -0.893777
H  -2.751874  -1.227023   0.859158
C  -0.165257  -0.676212   0.048110
H  -1.388260   0.838369   0.870750
H  -1.386076   0.814447  -0.894337
H  -0.227673  -1.394379   1.037206
H   0.830612   0.001321  -0.088524
H  -0.170462  -1.204039  -0.688952
