14
butane_opt
C  -3.924920   0.249312   0.015242
C  -2.685662  -0.589465   0.034445
H  -4.860827  -0.374318   0.198284
H  -4.011120   1.122926  -0.994668
H  -3.939355   0.687673   0.714751
C  -1.416552   0.183881   0.038253
H  -2.767928  -1.289275  -0.858449
H  -2.711927  -1.177541   0.882223
C  -0.160816  -0.703403   0.023507
H  -1.392493   0.840654   0.927166
H  -1.465087   0.765449  -0.832889
H  -0.152421  -1.214048   0.837781
H   0.760730  -0.114304   0.041151
H  -0.212647  -1.398425  -0.842610
