14
butane_opt
C  -3.962740   0.287034   0.046925
C  -2.701052  -0.649758   0.018131
H  -4.836589  -0.243289  -0.184755
H  -4.014612   0.704476  -0.697161
H  -4.016818   1.138316   1.025082
C  -1.387514   0.176086  -0.041033
H  -2.716477  -1.283756  -0.832055
H  -2.732233  -1.331558   0.946596
C  -0.154365  -0.681363   0.066331
H  -1.476491   0.807721   0.789319
H  -1.341178   0.761464  -0.905821
H  -0.071756  -1.308593   1.023872
H   0.793150  -0.053469  -0.073297
H  -0.160534  -1.233909  -0.721015
