butane_opt
 OpenBabel08242015413D

 14 13  0  0  0  0  0  0  0  0999 V2000
   -3.9380    0.2390    0.0750 C   0  0  0  0  0  0  0  0  0  0  0  0
   -2.7298   -0.5834   -0.0062 C   0  0  0  0  0  0  0  0  0  0  0  0
   -4.9022   -0.3619    0.0946 H   0  0  0  0  0  0  0  0  0  0  0  0
   -4.0381    0.8892   -0.8049 H   0  0  0  0  0  0  0  0  0  0  0  0
   -3.9597    0.9244    0.9513 H   0  0  0  0  0  0  0  0  0  0  0  0
   -1.4043    0.2094   -0.0524 C   0  0  0  0  0  0  0  0  0  0  0  0
   -2.8265   -1.3436   -0.9189 H   0  0  0  0  0  0  0  0  0  0  0  0
   -2.7423   -1.1561    0.8229 H   0  0  0  0  0  0  0  0  0  0  0  0
   -0.1233   -0.7219    0.0876 C   0  0  0  0  0  0  0  0  0  0  0  0
   -1.3533    0.8121    0.7267 H   0  0  0  0  0  0  0  0  0  0  0  0
   -1.4098    0.9114   -1.0140 H   0  0  0  0  0  0  0  0  0  0  0  0
   -0.2545   -1.2918    0.9569 H   0  0  0  0  0  0  0  0  0  0  0  0
    0.7728   -0.1460    0.1619 H   0  0  0  0  0  0  0  0  0  0  0  0
    0.0556   -1.4400   -0.7881 H   0  0  0  0  0  0  0  0  0  0  0  0
  1  3  1  0  0  0  0
  1  5  1  0  0  0  0
  2  1  1  0  0  0  0
  2  8  1  0  0  0  0
  4  1  1  0  0  0  0
  6  2  1  0  0  0  0
  6  9  1  0  0  0  0
  6 10  1  0  0  0  0
  7  2  1  0  0  0  0
  9 13  1  0  0  0  0
  9 12  1  0  0  0  0
 11  6  1  0  0  0  0
 14  9  1  0  0  0  0
M  END
$$$$
