14
butane_opt
C  -3.938037   0.238968   0.075021
C  -2.729833  -0.583419  -0.006181
H  -4.902236  -0.361874   0.094557
H  -4.038108   0.889237  -0.804939
H  -3.959666   0.924389   0.951311
C  -1.404292   0.209380  -0.052445
H  -2.826499  -1.343623  -0.918924
H  -2.742260  -1.156053   0.822879
C  -0.123295  -0.721852   0.087631
H  -1.353304   0.812145   0.726719
H  -1.409803   0.911359  -1.014022
H  -0.254530  -1.291778   0.956922
H   0.772823  -0.145954   0.161920
H   0.055611  -1.440033  -0.788065
