butane_opt
 OpenBabel08242015413D

 14 13  0  0  0  0  0  0  0  0999 V2000
   -3.9469    0.2540   -0.0113 C   0  0  0  0  0  0  0  0  0  0  0  0
   -2.7049   -0.6088    0.0560 C   0  0  0  0  0  0  0  0  0  0  0  0
   -4.8259   -0.3079    0.1539 H   0  0  0  0  0  0  0  0  0  0  0  0
   -3.9869    1.0026   -0.9836 H   0  0  0  0  0  0  0  0  0  0  0  0
   -3.9826    0.7784    0.7630 H   0  0  0  0  0  0  0  0  0  0  0  0
   -1.4007    0.2025    0.0551 C   0  0  0  0  0  0  0  0  0  0  0  0
   -2.7456   -1.3050   -0.7909 H   0  0  0  0  0  0  0  0  0  0  0  0
   -2.7174   -1.2698    0.9616 H   0  0  0  0  0  0  0  0  0  0  0  0
   -0.1547   -0.7059    0.0032 C   0  0  0  0  0  0  0  0  0  0  0  0
   -1.3908    0.9214    0.9204 H   0  0  0  0  0  0  0  0  0  0  0  0
   -1.4338    0.7866   -0.8174 H   0  0  0  0  0  0  0  0  0  0  0  0
   -0.0820   -1.2542    0.8725 H   0  0  0  0  0  0  0  0  0  0  0  0
    0.7458   -0.1127   -0.0003 H   0  0  0  0  0  0  0  0  0  0  0  0
   -0.1193   -1.4051   -0.8949 H   0  0  0  0  0  0  0  0  0  0  0  0
  1  2  1  0  0  0  0
  1  3  1  0  0  0  0
  1  5  1  0  0  0  0
  2  8  1  0  0  0  0
  4  1  1  0  0  0  0
  6  2  1  0  0  0  0
  6 10  1  0  0  0  0
  7  2  1  0  0  0  0
  9  6  1  0  0  0  0
  9 12  1  0  0  0  0
 11  6  1  0  0  0  0
 13  9  1  0  0  0  0
 14  9  1  0  0  0  0
M  END
$$$$
