14
butane_opt
C  -3.963716   0.274178   0.060191
C  -2.701533  -0.634966  -0.028806
H  -4.847062  -0.283154   0.244338
H  -4.202731   1.051101  -0.874336
H  -3.864904   0.887377   0.863015
C  -1.389269   0.161408   0.001558
H  -2.727542  -1.364478  -0.965573
H  -2.689082  -1.176759   0.825051
C  -0.152082  -0.674999   0.069476
H  -1.502281   0.778419   0.762791
H  -1.326219   0.791737  -0.922073
H  -0.139640  -1.372308   1.002055
H   0.828667  -0.004253   0.015220
H  -0.087162  -1.269561  -0.750116
