butane_opt
 OpenBabel08242015413D

 14 13  0  0  0  0  0  0  0  0999 V2000
   -3.9384    0.2807    0.0470 C   0  0  0  0  0  0  0  0  0  0  0  0
   -2.6813   -0.6271    0.0294 C   0  0  0  0  0  0  0  0  0  0  0  0
   -4.8496   -0.3130   -0.1502 H   0  0  0  0  0  0  0  0  0  0  0  0
   -3.9081    0.6609   -0.7044 H   0  0  0  0  0  0  0  0  0  0  0  0
   -4.0068    1.1513    1.0331 H   0  0  0  0  0  0  0  0  0  0  0  0
   -1.4189    0.1653   -0.0506 C   0  0  0  0  0  0  0  0  0  0  0  0
   -2.7017   -1.3646   -0.8405 H   0  0  0  0  0  0  0  0  0  0  0  0
   -2.6444   -1.2262    0.9039 H   0  0  0  0  0  0  0  0  0  0  0  0
   -0.1582   -0.6809    0.0636 C   0  0  0  0  0  0  0  0  0  0  0  0
   -1.4102    0.8050    0.7514 H   0  0  0  0  0  0  0  0  0  0  0  0
   -1.4052    0.7806   -0.8903 H   0  0  0  0  0  0  0  0  0  0  0  0
   -0.3299   -1.3639    1.0338 H   0  0  0  0  0  0  0  0  0  0  0  0
    0.7496   -0.0289   -0.0550 H   0  0  0  0  0  0  0  0  0  0  0  0
   -0.1507   -1.2296   -0.6935 H   0  0  0  0  0  0  0  0  0  0  0  0
  1  5  1  0  0  0  0
  2  1  1  0  0  0  0
  2  8  1  0  0  0  0
  3  1  1  0  0  0  0
  4  1  1  0  0  0  0
  6  2  1  0  0  0  0
  6  9  1  0  0  0  0
  6 10  1  0  0  0  0
  7  2  1  0  0  0  0
  9 12  1  0  0  0  0
 11  6  1  0  0  0  0
 13  9  1  0  0  0  0
 14  9  1  0  0  0  0
M  END
$$$$
