butane_opt
 OpenBabel08242015413D

 14 13  0  0  0  0  0  0  0  0999 V2000
   -3.9627    0.2870    0.0469 C   0  0  0  0  0  0  0  0  0  0  0  0
   -2.7011   -0.6498    0.0181 C   0  0  0  0  0  0  0  0  0  0  0  0
   -4.8366   -0.2433   -0.1848 H   0  0  0  0  0  0  0  0  0  0  0  0
   -4.0146    0.7045   -0.6972 H   0  0  0  0  0  0  0  0  0  0  0  0
   -4.0168    1.1383    1.0251 H   0  0  0  0  0  0  0  0  0  0  0  0
   -1.3875    0.1761   -0.0410 C   0  0  0  0  0  0  0  0  0  0  0  0
   -2.7165   -1.2838   -0.8321 H   0  0  0  0  0  0  0  0  0  0  0  0
   -2.7322   -1.3316    0.9466 H   0  0  0  0  0  0  0  0  0  0  0  0
   -0.1544   -0.6814    0.0663 C   0  0  0  0  0  0  0  0  0  0  0  0
   -1.4765    0.8077    0.7893 H   0  0  0  0  0  0  0  0  0  0  0  0
   -1.3412    0.7615   -0.9058 H   0  0  0  0  0  0  0  0  0  0  0  0
   -0.0718   -1.3086    1.0239 H   0  0  0  0  0  0  0  0  0  0  0  0
    0.7932   -0.0535   -0.0733 H   0  0  0  0  0  0  0  0  0  0  0  0
   -0.1605   -1.2339   -0.7210 H   0  0  0  0  0  0  0  0  0  0  0  0
  1  5  1  0  0  0  0
  2  1  1  0  0  0  0
  2  8  1  0  0  0  0
  3  1  1  0  0  0  0
  4  1  1  0  0  0  0
  6  2  1  0  0  0  0
  6  9  1  0  0  0  0
  6 10  1  0  0  0  0
  7  2  1  0  0  0  0
  9 12  1  0  0  0  0
 11  6  1  0  0  0  0
 13  9  1  0  0  0  0
 14  9  1  0  0  0  0
M  END
$$$$
