14
butane_opt
C  -3.915352   0.247130   0.017472
C  -2.698554  -0.578091   0.011423
H  -4.888198  -0.379767   0.004467
H  -4.041818   0.792377  -0.792702
H  -3.853451   0.917831   0.904701
C  -1.412422   0.185962   0.025262
H  -2.750684  -1.204821  -0.805086
H  -2.792734  -1.187344   0.888189
C  -0.161638  -0.715851   0.034081
H  -1.444622   0.882212   0.888640
H  -1.395638   0.827095  -0.825847
H  -0.096071  -1.486308   1.001394
H   0.724765  -0.115819  -0.163119
H  -0.213622  -1.201121  -0.710405
