14
butane_opt
C  -3.937400   0.287162  -0.019349
C  -2.703631  -0.631537   0.097601
H  -4.862421  -0.295160  -0.217507
H  -3.824715   0.778800  -0.833919
H  -4.075706   0.999091   0.847332
C  -1.398664   0.165383   0.057132
H  -2.589658  -1.242031  -0.742790
H  -2.674018  -1.305609   1.010290
C  -0.187031  -0.679293  -0.011637
H  -1.418959   0.774634   0.863107
H  -1.315256   0.805367  -0.858703
H  -0.050745  -1.284940   0.853473
H   0.752186  -0.013141  -0.090473
H  -0.257752  -1.387972  -0.874198
