14
butane_opt
C  -3.961463   0.277345   0.055449
C  -2.677580  -0.628504   0.015813
H  -4.829135  -0.243239  -0.128334
H  -3.838296   0.700113  -0.692395
H  -4.071633   1.142431   1.052859
C  -1.394065   0.156871  -0.042648
H  -2.688113  -1.416438  -0.912136
H  -2.690642  -1.223671   0.892535
C  -0.170733  -0.681716   0.082514
H  -1.459873   0.793627   0.724092
H  -1.381163   0.884776  -0.994056
H  -0.164674  -1.341085   1.036071
H   0.809525  -0.017129  -0.102588
H  -0.273580  -1.231728  -0.732580
