14
butane_opt
C  -3.943223   0.252271   0.070177
C  -2.731729  -0.601691  -0.057251
H  -4.820271  -0.299326   0.347109
H  -4.145068   0.905863  -0.833803
H  -3.876944   0.823783   0.872239
C  -1.392789   0.207845  -0.031077
H  -2.749025  -1.296804  -0.891544
H  -2.682072  -1.193013   0.820606
C  -0.144712  -0.706921   0.083330
H  -1.383282   0.858465   0.839931
H  -1.372167   0.802658  -0.923084
H  -0.148838  -1.401213   1.059325
H   0.764244  -0.145514   0.074989
H  -0.057424  -1.336419  -0.702268
