butane_opt
 OpenBabel08242015413D

 14 13  0  0  0  0  0  0  0  0999 V2000
   -3.9572    0.2601   -0.0051 C   0  0  0  0  0  0  0  0  0  0  0  0
   -2.6924   -0.6019    0.0429 C   0  0  0  0  0  0  0  0  0  0  0  0
   -4.8638   -0.3848    0.3066 H   0  0  0  0  0  0  0  0  0  0  0  0
   -4.0194    1.0638   -1.0044 H   0  0  0  0  0  0  0  0  0  0  0  0
   -3.9070    0.7290    0.7416 H   0  0  0  0  0  0  0  0  0  0  0  0
   -1.3958    0.2026    0.0387 C   0  0  0  0  0  0  0  0  0  0  0  0
   -2.6861   -1.2578   -0.8084 H   0  0  0  0  0  0  0  0  0  0  0  0
   -2.7976   -1.2626    0.9456 H   0  0  0  0  0  0  0  0  0  0  0  0
   -0.1702   -0.7033   -0.0017 C   0  0  0  0  0  0  0  0  0  0  0  0
   -1.3391    0.9099    0.9565 H   0  0  0  0  0  0  0  0  0  0  0  0
   -1.3971    0.6664   -0.7487 H   0  0  0  0  0  0  0  0  0  0  0  0
   -0.1510   -1.2715    0.9011 H   0  0  0  0  0  0  0  0  0  0  0  0
    0.7366   -0.1204    0.0945 H   0  0  0  0  0  0  0  0  0  0  0  0
   -0.0147   -1.4220   -0.8595 H   0  0  0  0  0  0  0  0  0  0  0  0
  1  2  1  0  0  0  0
  1  3  1  0  0  0  0
  1  5  1  0  0  0  0
  2  8  1  0  0  0  0
  4  1  1  0  0  0  0
  6  2  1  0  0  0  0
  6 10  1  0  0  0  0
  7  2  1  0  0  0  0
  9  6  1  0  0  0  0
  9 13  1  0  0  0  0
  9 12  1  0  0  0  0
 11  6  1  0  0  0  0
 14  9  1  0  0  0  0
M  END
$$$$
