butane_opt
 OpenBabel08242015413D

 14 13  0  0  0  0  0  0  0  0999 V2000
   -3.9647    0.2626    0.0453 C   0  0  0  0  0  0  0  0  0  0  0  0
   -2.6768   -0.6121   -0.0056 C   0  0  0  0  0  0  0  0  0  0  0  0
   -4.8690   -0.3215    0.0927 H   0  0  0  0  0  0  0  0  0  0  0  0
   -4.0049    0.8429   -0.8504 H   0  0  0  0  0  0  0  0  0  0  0  0
   -3.9150    1.0139    0.9520 H   0  0  0  0  0  0  0  0  0  0  0  0
   -1.4108    0.1742    0.0118 C   0  0  0  0  0  0  0  0  0  0  0  0
   -2.6516   -1.3414   -0.9340 H   0  0  0  0  0  0  0  0  0  0  0  0
   -2.6824   -1.1851    0.8491 H   0  0  0  0  0  0  0  0  0  0  0  0
   -0.1687   -0.6851    0.0592 C   0  0  0  0  0  0  0  0  0  0  0  0
   -1.3441    0.7054    0.7319 H   0  0  0  0  0  0  0  0  0  0  0  0
   -1.3462    0.8426   -0.9322 H   0  0  0  0  0  0  0  0  0  0  0  0
   -0.1086   -1.3917    1.0650 H   0  0  0  0  0  0  0  0  0  0  0  0
    0.7540   -0.0669   -0.0730 H   0  0  0  0  0  0  0  0  0  0  0  0
   -0.2013   -1.2431   -0.7615 H   0  0  0  0  0  0  0  0  0  0  0  0
  1  3  1  0  0  0  0
  1  5  1  0  0  0  0
  2  6  1  0  0  0  0
  2  1  1  0  0  0  0
  2  8  1  0  0  0  0
  4  1  1  0  0  0  0
  6  9  1  0  0  0  0
  6 10  1  0  0  0  0
  7  2  1  0  0  0  0
  9 12  1  0  0  0  0
 11  6  1  0  0  0  0
 13  9  1  0  0  0  0
 14  9  1  0  0  0  0
M  END
$$$$
