butane_opt
 OpenBabel08242015413D

 14 13  0  0  0  0  0  0  0  0999 V2000
   -3.9550    0.2456   -0.0119 C   0  0  0  0  0  0  0  0  0  0  0  0
   -2.7141   -0.5841    0.0889 C   0  0  0  0  0  0  0  0  0  0  0  0
   -4.8590   -0.3943   -0.1912 H   0  0  0  0  0  0  0  0  0  0  0  0
   -3.8994    0.8282   -0.8735 H   0  0  0  0  0  0  0  0  0  0  0  0
   -4.0470    1.0042    0.9040 H   0  0  0  0  0  0  0  0  0  0  0  0
   -1.4005    0.2099    0.0284 C   0  0  0  0  0  0  0  0  0  0  0  0
   -2.7429   -1.2465   -0.7223 H   0  0  0  0  0  0  0  0  0  0  0  0
   -2.8399   -1.3101    1.0468 H   0  0  0  0  0  0  0  0  0  0  0  0
   -0.1402   -0.7238    0.0022 C   0  0  0  0  0  0  0  0  0  0  0  0
   -1.3761    0.9247    0.8797 H   0  0  0  0  0  0  0  0  0  0  0  0
   -1.3738    0.7797   -0.8329 H   0  0  0  0  0  0  0  0  0  0  0  0
   -0.0461   -1.3242    0.8687 H   0  0  0  0  0  0  0  0  0  0  0  0
    0.8139   -0.0802   -0.0408 H   0  0  0  0  0  0  0  0  0  0  0  0
   -0.1286   -1.4215   -0.8913 H   0  0  0  0  0  0  0  0  0  0  0  0
  1  2  1  0  0  0  0
  1  5  1  0  0  0  0
  2  8  1  0  0  0  0
  3  1  1  0  0  0  0
  4  1  1  0  0  0  0
  6  2  1  0  0  0  0
  6 10  1  0  0  0  0
  7  2  1  0  0  0  0
  9  6  1  0  0  0  0
  9 12  1  0  0  0  0
 11  6  1  0  0  0  0
 13  9  1  0  0  0  0
 14  9  1  0  0  0  0
M  END
$$$$
