butane_opt
 OpenBabel08242015413D

 14 13  0  0  0  0  0  0  0  0999 V2000
   -3.9425    0.2384    0.0924 C   0  0  0  0  0  0  0  0  0  0  0  0
   -2.7140   -0.5948   -0.0488 C   0  0  0  0  0  0  0  0  0  0  0  0
   -4.8125   -0.3509    0.2094 H   0  0  0  0  0  0  0  0  0  0  0  0
   -4.0962    0.9425   -0.8691 H   0  0  0  0  0  0  0  0  0  0  0  0
   -3.8953    0.8942    0.9450 H   0  0  0  0  0  0  0  0  0  0  0  0
   -1.4148    0.2095   -0.0608 C   0  0  0  0  0  0  0  0  0  0  0  0
   -2.8339   -1.3353   -0.9272 H   0  0  0  0  0  0  0  0  0  0  0  0
   -2.6958   -1.2037    0.8466 H   0  0  0  0  0  0  0  0  0  0  0  0
   -0.1278   -0.7144    0.0966 C   0  0  0  0  0  0  0  0  0  0  0  0
   -1.3941    0.9162    0.7777 H   0  0  0  0  0  0  0  0  0  0  0  0
   -1.3266    0.8546   -0.9505 H   0  0  0  0  0  0  0  0  0  0  0  0
   -0.1899   -1.3610    1.0065 H   0  0  0  0  0  0  0  0  0  0  0  0
    0.7082   -0.1913    0.1793 H   0  0  0  0  0  0  0  0  0  0  0  0
   -0.0707   -1.3103   -0.7281 H   0  0  0  0  0  0  0  0  0  0  0  0
  1  3  1  0  0  0  0
  1  5  1  0  0  0  0
  2  1  1  0  0  0  0
  2  8  1  0  0  0  0
  4  1  1  0  0  0  0
  6  2  1  0  0  0  0
  6  9  1  0  0  0  0
  6 10  1  0  0  0  0
  7  2  1  0  0  0  0
  9 13  1  0  0  0  0
  9 12  1  0  0  0  0
 11  6  1  0  0  0  0
 14  9  1  0  0  0  0
M  END
$$$$
