butane_opt
 OpenBabel08242015413D

 14 13  0  0  0  0  0  0  0  0999 V2000
   -3.9562    0.2788    0.0355 C   0  0  0  0  0  0  0  0  0  0  0  0
   -2.6964   -0.6458   -0.0067 C   0  0  0  0  0  0  0  0  0  0  0  0
   -4.8313   -0.2501    0.0239 H   0  0  0  0  0  0  0  0  0  0  0  0
   -4.0634    0.8545   -0.8341 H   0  0  0  0  0  0  0  0  0  0  0  0
   -3.9362    0.9514    0.9203 H   0  0  0  0  0  0  0  0  0  0  0  0
   -1.3881    0.1954    0.0137 C   0  0  0  0  0  0  0  0  0  0  0  0
   -2.7696   -1.2509   -0.8478 H   0  0  0  0  0  0  0  0  0  0  0  0
   -2.7545   -1.2979    0.8789 H   0  0  0  0  0  0  0  0  0  0  0  0
   -0.1657   -0.6958    0.0513 C   0  0  0  0  0  0  0  0  0  0  0  0
   -1.3626    0.8833    0.8667 H   0  0  0  0  0  0  0  0  0  0  0  0
   -1.3779    0.8069   -0.8416 H   0  0  0  0  0  0  0  0  0  0  0  0
   -0.0614   -1.4505    1.0700 H   0  0  0  0  0  0  0  0  0  0  0  0
    0.8072   -0.0336   -0.1749 H   0  0  0  0  0  0  0  0  0  0  0  0
   -0.2126   -1.2637   -0.7392 H   0  0  0  0  0  0  0  0  0  0  0  0
  1  5  1  0  0  0  0
  2  6  1  0  0  0  0
  2  1  1  0  0  0  0
  2  8  1  0  0  0  0
  3  1  1  0  0  0  0
  4  1  1  0  0  0  0
  6  9  1  0  0  0  0
  6 10  1  0  0  0  0
  7  2  1  0  0  0  0
  9 12  1  0  0  0  0
 11  6  1  0  0  0  0
 13  9  1  0  0  0  0
 14  9  1  0  0  0  0
M  END
$$$$
