14
butane_opt
C  -3.930650   0.281857  -0.026921
C  -2.670246  -0.644778   0.098180
H  -4.783536  -0.305761  -0.169349
H  -3.868423   0.809569  -0.856544
H  -4.077194   1.103340   0.903493
C  -1.417576   0.174296   0.049084
H  -2.694922  -1.324848  -0.759083
H  -2.782776  -1.344787   1.040004
C  -0.173652  -0.670853   0.005232
H  -1.344122   0.795802   0.849845
H  -1.490530   0.830259  -0.917930
H  -0.102493  -1.266882   0.871178
H   0.751513  -0.041404  -0.052193
H  -0.337488  -1.401634  -0.952423
