butane_opt
 OpenBabel08242015413D

 14 13  0  0  0  0  0  0  0  0999 V2000
   -3.9694    0.2973   -0.0121 C   0  0  0  0  0  0  0  0  0  0  0  0
   -2.7091   -0.6425    0.0746 C   0  0  0  0  0  0  0  0  0  0  0  0
   -4.9109   -0.2892   -0.0068 H   0  0  0  0  0  0  0  0  0  0  0  0
   -3.9442    0.8574   -0.8921 H   0  0  0  0  0  0  0  0  0  0  0  0
   -4.0772    0.9349    0.7723 H   0  0  0  0  0  0  0  0  0  0  0  0
   -1.3888    0.1617    0.0500 C   0  0  0  0  0  0  0  0  0  0  0  0
   -2.6207   -1.3661   -0.7578 H   0  0  0  0  0  0  0  0  0  0  0  0
   -2.7938   -1.2212    0.9452 H   0  0  0  0  0  0  0  0  0  0  0  0
   -0.1421   -0.6774    0.0022 C   0  0  0  0  0  0  0  0  0  0  0  0
   -1.2745    0.8562    0.8995 H   0  0  0  0  0  0  0  0  0  0  0  0
   -1.3530    0.7901   -0.8304 H   0  0  0  0  0  0  0  0  0  0  0  0
   -0.0525   -1.3223    0.8934 H   0  0  0  0  0  0  0  0  0  0  0  0
    0.7603   -0.0628   -0.1098 H   0  0  0  0  0  0  0  0  0  0  0  0
   -0.2507   -1.3191   -0.8330 H   0  0  0  0  0  0  0  0  0  0  0  0
  1  3  1  0  0  0  0
  1  2  1  0  0  0  0
  1  5  1  0  0  0  0
  2  8  1  0  0  0  0
  4  1  1  0  0  0  0
  6  2  1  0  0  0  0
  6 10  1  0  0  0  0
  7  2  1  0  0  0  0
  9  6  1  0  0  0  0
  9 12  1  0  0  0  0
 11  6  1  0  0  0  0
 13  9  1  0  0  0  0
 14  9  1  0  0  0  0
M  END
$$$$
