14
butane_opt
C  -3.942510   0.238440   0.092371
C  -2.714012  -0.594830  -0.048816
H  -4.812528  -0.350868   0.209398
H  -4.096158   0.942454  -0.869144
H  -3.895290   0.894232   0.944969
C  -1.414777   0.209453  -0.060781
H  -2.833889  -1.335289  -0.927245
H  -2.695799  -1.203656   0.846641
C  -0.127762  -0.714358   0.096645
H  -1.394087   0.916162   0.777712
H  -1.326636   0.854630  -0.950484
H  -0.189873  -1.360997   1.006495
H   0.708213  -0.191285   0.179336
H  -0.070671  -1.310297  -0.728097
