14
butane_opt
C  -3.964676   0.262629   0.045341
C  -2.676817  -0.612061  -0.005608
H  -4.869048  -0.321453   0.092688
H  -4.004876   0.842924  -0.850386
H  -3.914964   1.013950   0.951976
C  -1.410788   0.174236   0.011799
H  -2.651632  -1.341382  -0.933992
H  -2.682404  -1.185121   0.849077
C  -0.168658  -0.685052   0.059240
H  -1.344086   0.705357   0.731890
H  -1.346195   0.842625  -0.932152
H  -0.108559  -1.391669   1.065039
H   0.754033  -0.066906  -0.072980
H  -0.201272  -1.243100  -0.761489
