butane_opt
 OpenBabel08242015413D

 14 13  0  0  0  0  0  0  0  0999 V2000
   -3.9306    0.2819   -0.0269 C   0  0  0  0  0  0  0  0  0  0  0  0
   -2.6702   -0.6448    0.0982 C   0  0  0  0  0  0  0  0  0  0  0  0
   -4.7835   -0.3058   -0.1693 H   0  0  0  0  0  0  0  0  0  0  0  0
   -3.8684    0.8096   -0.8565 H   0  0  0  0  0  0  0  0  0  0  0  0
   -4.0772    1.1033    0.9035 H   0  0  0  0  0  0  0  0  0  0  0  0
   -1.4176    0.1743    0.0491 C   0  0  0  0  0  0  0  0  0  0  0  0
   -2.6949   -1.3248   -0.7591 H   0  0  0  0  0  0  0  0  0  0  0  0
   -2.7828   -1.3448    1.0400 H   0  0  0  0  0  0  0  0  0  0  0  0
   -0.1737   -0.6709    0.0052 C   0  0  0  0  0  0  0  0  0  0  0  0
   -1.3441    0.7958    0.8498 H   0  0  0  0  0  0  0  0  0  0  0  0
   -1.4905    0.8303   -0.9179 H   0  0  0  0  0  0  0  0  0  0  0  0
   -0.1025   -1.2669    0.8712 H   0  0  0  0  0  0  0  0  0  0  0  0
    0.7515   -0.0414   -0.0522 H   0  0  0  0  0  0  0  0  0  0  0  0
   -0.3375   -1.4016   -0.9524 H   0  0  0  0  0  0  0  0  0  0  0  0
  1  2  1  0  0  0  0
  1  5  1  0  0  0  0
  2  8  1  0  0  0  0
  3  1  1  0  0  0  0
  4  1  1  0  0  0  0
  6  2  1  0  0  0  0
  6 10  1  0  0  0  0
  7  2  1  0  0  0  0
  9  6  1  0  0  0  0
  9 12  1  0  0  0  0
 11  6  1  0  0  0  0
 13  9  1  0  0  0  0
 14  9  1  0  0  0  0
M  END
$$$$
