14
butane_opt
C  -3.955019   0.245646  -0.011872
C  -2.714097  -0.584079   0.088877
H  -4.858965  -0.394349  -0.191155
H  -3.899403   0.828240  -0.873507
H  -4.047022   1.004211   0.904040
C  -1.400550   0.209885   0.028404
H  -2.742944  -1.246492  -0.722253
H  -2.839920  -1.310052   1.046781
C  -0.140237  -0.723776   0.002172
H  -1.376141   0.924665   0.879692
H  -1.373769   0.779731  -0.832933
H  -0.046080  -1.324158   0.868720
H   0.813937  -0.080181  -0.040782
H  -0.128625  -1.421539  -0.891332
