butane_opt
 OpenBabel08242015413D

 14 13  0  0  0  0  0  0  0  0999 V2000
   -3.9595    0.2816    0.0210 C   0  0  0  0  0  0  0  0  0  0  0  0
   -2.6893   -0.6583    0.0266 C   0  0  0  0  0  0  0  0  0  0  0  0
   -4.7845   -0.2540    0.0048 H   0  0  0  0  0  0  0  0  0  0  0  0
   -3.9982    0.9211   -0.9207 H   0  0  0  0  0  0  0  0  0  0  0  0
   -4.0902    0.9525    0.9013 H   0  0  0  0  0  0  0  0  0  0  0  0
   -1.4082    0.1809    0.0334 C   0  0  0  0  0  0  0  0  0  0  0  0
   -2.6732   -1.3932   -0.8549 H   0  0  0  0  0  0  0  0  0  0  0  0
   -2.7182   -1.2132    0.8598 H   0  0  0  0  0  0  0  0  0  0  0  0
   -0.1633   -0.6848    0.0219 C   0  0  0  0  0  0  0  0  0  0  0  0
   -1.3368    0.9068    0.9853 H   0  0  0  0  0  0  0  0  0  0  0  0
   -1.3640    0.8218   -0.8588 H   0  0  0  0  0  0  0  0  0  0  0  0
   -0.0670   -1.4646    1.0356 H   0  0  0  0  0  0  0  0  0  0  0  0
    0.8305    0.0015   -0.2397 H   0  0  0  0  0  0  0  0  0  0  0  0
   -0.1953   -1.1552   -0.6908 H   0  0  0  0  0  0  0  0  0  0  0  0
  1  2  1  0  0  0  0
  1  5  1  0  0  0  0
  2  6  1  0  0  0  0
  2  8  1  0  0  0  0
  3  1  1  0  0  0  0
  4  1  1  0  0  0  0
  6 10  1  0  0  0  0
  7  2  1  0  0  0  0
  9  6  1  0  0  0  0
  9 12  1  0  0  0  0
 11  6  1  0  0  0  0
 13  9  1  0  0  0  0
 14  9  1  0  0  0  0
M  END
$$$$
