14
butane_opt
C  -3.964835   0.262675   0.067505
C  -2.702709  -0.621252   0.011011
H  -4.866132  -0.376936   0.083789
H  -3.903958   0.920784  -0.862226
H  -3.936797   0.907335   0.909548
C  -1.399534   0.188822  -0.051874
H  -2.758453  -1.269731  -0.826597
H  -2.643033  -1.180458   0.827653
C  -0.146968  -0.690194   0.062090
H  -1.471225   0.814078   0.806594
H  -1.415872   0.875898  -0.977869
H  -0.209380  -1.243879   0.946954
H   0.762948  -0.107721   0.298864
H  -0.025991  -1.493719  -0.839901
