butane_opt
 OpenBabel08242015413D

 14 13  0  0  0  0  0  0  0  0999 V2000
   -3.9268    0.2525    0.0372 C   0  0  0  0  0  0  0  0  0  0  0  0
   -2.7140   -0.5833    0.0073 C   0  0  0  0  0  0  0  0  0  0  0  0
   -4.8467   -0.3539    0.1841 H   0  0  0  0  0  0  0  0  0  0  0  0
   -3.9887    0.8649   -0.8559 H   0  0  0  0  0  0  0  0  0  0  0  0
   -3.9258    0.9071    0.8944 H   0  0  0  0  0  0  0  0  0  0  0  0
   -1.4154    0.1869   -0.0325 C   0  0  0  0  0  0  0  0  0  0  0  0
   -2.8165   -1.2008   -0.7652 H   0  0  0  0  0  0  0  0  0  0  0  0
   -2.7100   -1.3042    0.9416 H   0  0  0  0  0  0  0  0  0  0  0  0
   -0.1408   -0.7096    0.0678 C   0  0  0  0  0  0  0  0  0  0  0  0
   -1.3994    0.8407    0.8076 H   0  0  0  0  0  0  0  0  0  0  0  0
   -1.3793    0.7812   -0.9013 H   0  0  0  0  0  0  0  0  0  0  0  0
   -0.2402   -1.1777    0.8599 H   0  0  0  0  0  0  0  0  0  0  0  0
    0.7430   -0.1131    0.2121 H   0  0  0  0  0  0  0  0  0  0  0  0
   -0.0860   -1.4787   -0.9053 H   0  0  0  0  0  0  0  0  0  0  0  0
  1  3  1  0  0  0  0
  1  5  1  0  0  0  0
  2  1  1  0  0  0  0
  2  8  1  0  0  0  0
  4  1  1  0  0  0  0
  6  2  1  0  0  0  0
  6  9  1  0  0  0  0
  6 10  1  0  0  0  0
  7  2  1  0  0  0  0
  9 13  1  0  0  0  0
  9 12  1  0  0  0  0
 11  6  1  0  0  0  0
 14  9  1  0  0  0  0
M  END
$$$$
