butane_opt
 OpenBabel08242015413D

 14 13  0  0  0  0  0  0  0  0999 V2000
   -3.9360    0.2681   -0.0202 C   0  0  0  0  0  0  0  0  0  0  0  0
   -2.6868   -0.6220    0.0816 C   0  0  0  0  0  0  0  0  0  0  0  0
   -4.8479   -0.3364    0.0928 H   0  0  0  0  0  0  0  0  0  0  0  0
   -3.9574    0.9541   -0.9207 H   0  0  0  0  0  0  0  0  0  0  0  0
   -3.9112    0.8951    0.8340 H   0  0  0  0  0  0  0  0  0  0  0  0
   -1.4016    0.1905    0.0405 C   0  0  0  0  0  0  0  0  0  0  0  0
   -2.6828   -1.3379   -0.7919 H   0  0  0  0  0  0  0  0  0  0  0  0
   -2.7988   -1.2757    0.9606 H   0  0  0  0  0  0  0  0  0  0  0  0
   -0.1710   -0.6993    0.0084 C   0  0  0  0  0  0  0  0  0  0  0  0
   -1.3897    0.8428    0.8779 H   0  0  0  0  0  0  0  0  0  0  0  0
   -1.3707    0.8799   -0.8916 H   0  0  0  0  0  0  0  0  0  0  0  0
   -0.2116   -1.1555    0.8072 H   0  0  0  0  0  0  0  0  0  0  0  0
    0.6717   -0.1242    0.0576 H   0  0  0  0  0  0  0  0  0  0  0  0
   -0.1716   -1.4677   -0.9282 H   0  0  0  0  0  0  0  0  0  0  0  0
  1  2  1  0  0  0  0
  1  3  1  0  0  0  0
  1  5  1  0  0  0  0
  2  8  1  0  0  0  0
  4  1  1  0  0  0  0
  6  2  1  0  0  0  0
  6 10  1  0  0  0  0
  7  2  1  0  0  0  0
  9  6  1  0  0  0  0
  9 13  1  0  0  0  0
  9 12  1  0  0  0  0
 11  6  1  0  0  0  0
 14  9  1  0  0  0  0
M  END
$$$$
