14
butane_opt
C  -3.951377   0.284832   0.070894
C  -2.694421  -0.644727  -0.016355
H  -4.854621  -0.272868   0.113356
H  -4.141145   0.866584  -0.763403
H  -3.901994   1.043773   0.992368
C  -1.386883   0.181569  -0.058402
H  -2.788157  -1.378604  -0.952712
H  -2.624090  -1.277529   0.856246
C  -0.171091  -0.684775   0.097644
H  -1.372170   0.736335   0.730219
H  -1.293475   0.874362  -1.028680
H  -0.292403  -1.291806   0.966384
H   0.791463  -0.016203   0.176268
H  -0.101395  -1.388850  -0.776650
