14
butane_opt
C  -3.938897   0.238645  -0.012574
C  -2.718218  -0.592267   0.076299
H  -4.787320  -0.334547   0.208963
H  -4.038487   1.087828  -1.078396
H  -3.872376   0.701517   0.737078
C  -1.396744   0.213930   0.051967
H  -2.755297  -1.364298  -0.844613
H  -2.775697  -1.151228   0.933425
C  -0.150672  -0.709150  -0.009928
H  -1.398206   0.951519   0.907399
H  -1.437115   0.817811  -0.819684
H  -0.131054  -1.298273   0.891138
H   0.715295  -0.146453   0.112998
H  -0.083171  -1.546298  -0.910752
