14
butane_opt
C  -3.973230   0.281406  -0.018554
C  -2.688839  -0.632124   0.082999
H  -4.857442  -0.301350  -0.128522
H  -3.866324   0.875019  -0.872052
H  -4.041595   1.068619   0.915673
C  -1.385679   0.146481   0.049109
H  -2.648523  -1.253895  -0.724736
H  -2.789787  -1.274915   0.998158
C  -0.166550  -0.670101  -0.005098
H  -1.259296   0.776643   0.825668
H  -1.436711   0.814337  -0.848220
H  -0.090965  -1.285267   0.881396
H   0.738035  -0.045593   0.014274
H  -0.211551  -1.354145  -0.899135
