butane_opt
 OpenBabel08242015413D

 14 13  0  0  0  0  0  0  0  0999 V2000
   -3.9634    0.2746    0.0389 C   0  0  0  0  0  0  0  0  0  0  0  0
   -2.7140   -0.6225    0.0180 C   0  0  0  0  0  0  0  0  0  0  0  0
   -4.8569   -0.2678    0.1667 H   0  0  0  0  0  0  0  0  0  0  0  0
   -4.0696    1.0182   -0.9041 H   0  0  0  0  0  0  0  0  0  0  0  0
   -3.9591    0.8724    0.8613 H   0  0  0  0  0  0  0  0  0  0  0  0
   -1.3806    0.1764   -0.0035 C   0  0  0  0  0  0  0  0  0  0  0  0
   -2.7455   -1.4496   -0.9512 H   0  0  0  0  0  0  0  0  0  0  0  0
   -2.6682   -1.2220    0.8315 H   0  0  0  0  0  0  0  0  0  0  0  0
   -0.1376   -0.6918    0.0518 C   0  0  0  0  0  0  0  0  0  0  0  0
   -1.4444    0.8517    0.8393 H   0  0  0  0  0  0  0  0  0  0  0  0
   -1.2914    0.7984   -0.8977 H   0  0  0  0  0  0  0  0  0  0  0  0
   -0.1746   -1.3548    0.9919 H   0  0  0  0  0  0  0  0  0  0  0  0
    0.8074   -0.0325    0.0300 H   0  0  0  0  0  0  0  0  0  0  0  0
   -0.2684   -1.3125   -0.7950 H   0  0  0  0  0  0  0  0  0  0  0  0
  1  3  1  0  0  0  0
  1  5  1  0  0  0  0
  2  1  1  0  0  0  0
  2  8  1  0  0  0  0
  4  1  1  0  0  0  0
  6  2  1  0  0  0  0
  6  9  1  0  0  0  0
  6 10  1  0  0  0  0
  7  2  1  0  0  0  0
  9 12  1  0  0  0  0
 11  6  1  0  0  0  0
 13  9  1  0  0  0  0
 14  9  1  0  0  0  0
M  END
$$$$
