butane_opt
 OpenBabel08242015413D

 14 13  0  0  0  0  0  0  0  0999 V2000
   -3.9488    0.2458    0.0381 C   0  0  0  0  0  0  0  0  0  0  0  0
   -2.7066   -0.5861    0.0246 C   0  0  0  0  0  0  0  0  0  0  0  0
   -4.8874   -0.3570   -0.1267 H   0  0  0  0  0  0  0  0  0  0  0  0
   -3.8567    0.6344   -0.6974 H   0  0  0  0  0  0  0  0  0  0  0  0
   -4.0449    1.1219    1.0627 H   0  0  0  0  0  0  0  0  0  0  0  0
   -1.4232    0.2002   -0.0220 C   0  0  0  0  0  0  0  0  0  0  0  0
   -2.7887   -1.3463   -0.8900 H   0  0  0  0  0  0  0  0  0  0  0  0
   -2.7733   -1.2161    0.8807 H   0  0  0  0  0  0  0  0  0  0  0  0
   -0.1198   -0.7032    0.0648 C   0  0  0  0  0  0  0  0  0  0  0  0
   -1.3755    0.7627    0.7569 H   0  0  0  0  0  0  0  0  0  0  0  0
   -1.4728    0.9288   -0.9984 H   0  0  0  0  0  0  0  0  0  0  0  0
   -0.0706   -1.4322    1.0388 H   0  0  0  0  0  0  0  0  0  0  0  0
    0.7675   -0.1584   -0.0832 H   0  0  0  0  0  0  0  0  0  0  0  0
   -0.1378   -1.2909   -0.7221 H   0  0  0  0  0  0  0  0  0  0  0  0
  1  5  1  0  0  0  0
  2  1  1  0  0  0  0
  2  8  1  0  0  0  0
  3  1  1  0  0  0  0
  4  1  1  0  0  0  0
  6  2  1  0  0  0  0
  6  9  1  0  0  0  0
  6 10  1  0  0  0  0
  7  2  1  0  0  0  0
  9 12  1  0  0  0  0
 11  6  1  0  0  0  0
 13  9  1  0  0  0  0
 14  9  1  0  0  0  0
M  END
$$$$
