butane_opt
 OpenBabel08242015413D

 14 13  0  0  0  0  0  0  0  0999 V2000
   -3.9457    0.2566    0.0408 C   0  0  0  0  0  0  0  0  0  0  0  0
   -2.7019   -0.6042   -0.0002 C   0  0  0  0  0  0  0  0  0  0  0  0
   -4.8866   -0.3720    0.0325 H   0  0  0  0  0  0  0  0  0  0  0  0
   -3.9294    0.7498   -0.7750 H   0  0  0  0  0  0  0  0  0  0  0  0
   -3.9286    0.9855    0.9613 H   0  0  0  0  0  0  0  0  0  0  0  0
   -1.4185    0.1979   -0.0162 C   0  0  0  0  0  0  0  0  0  0  0  0
   -2.6886   -1.2690   -0.8584 H   0  0  0  0  0  0  0  0  0  0  0  0
   -2.7109   -1.1958    0.8873 H   0  0  0  0  0  0  0  0  0  0  0  0
   -0.1572   -0.7076    0.0652 C   0  0  0  0  0  0  0  0  0  0  0  0
   -1.4193    0.8832    0.8542 H   0  0  0  0  0  0  0  0  0  0  0  0
   -1.3460    0.8291   -0.8958 H   0  0  0  0  0  0  0  0  0  0  0  0
   -0.0381   -1.4380    1.0241 H   0  0  0  0  0  0  0  0  0  0  0  0
    0.7683   -0.1286   -0.1258 H   0  0  0  0  0  0  0  0  0  0  0  0
   -0.1626   -1.2329   -0.7158 H   0  0  0  0  0  0  0  0  0  0  0  0
  1  5  1  0  0  0  0
  2  1  1  0  0  0  0
  2  8  1  0  0  0  0
  3  1  1  0  0  0  0
  4  1  1  0  0  0  0
  6  2  1  0  0  0  0
  6  9  1  0  0  0  0
  6 10  1  0  0  0  0
  7  2  1  0  0  0  0
  9 12  1  0  0  0  0
 11  6  1  0  0  0  0
 13  9  1  0  0  0  0
 14  9  1  0  0  0  0
M  END
$$$$
