14
butane_opt
C  -3.963446   0.274580   0.038910
C  -2.713999  -0.622479   0.018035
H  -4.856906  -0.267807   0.166668
H  -4.069572   1.018172  -0.904110
H  -3.959091   0.872374   0.861278
C  -1.380591   0.176391  -0.003546
H  -2.745482  -1.449624  -0.951204
H  -2.668246  -1.221995   0.831524
C  -0.137595  -0.691833   0.051777
H  -1.444401   0.851678   0.839301
H  -1.291408   0.798397  -0.897704
H  -0.174551  -1.354846   0.991936
H   0.807446  -0.032498   0.030014
H  -0.268418  -1.312476  -0.794990
