butane_opt
 OpenBabel08242015413D

 14 13  0  0  0  0  0  0  0  0999 V2000
   -3.9389    0.2386   -0.0126 C   0  0  0  0  0  0  0  0  0  0  0  0
   -2.7182   -0.5923    0.0763 C   0  0  0  0  0  0  0  0  0  0  0  0
   -4.7873   -0.3345    0.2090 H   0  0  0  0  0  0  0  0  0  0  0  0
   -4.0385    1.0878   -1.0784 H   0  0  0  0  0  0  0  0  0  0  0  0
   -3.8724    0.7015    0.7371 H   0  0  0  0  0  0  0  0  0  0  0  0
   -1.3967    0.2139    0.0520 C   0  0  0  0  0  0  0  0  0  0  0  0
   -2.7553   -1.3643   -0.8446 H   0  0  0  0  0  0  0  0  0  0  0  0
   -2.7757   -1.1512    0.9334 H   0  0  0  0  0  0  0  0  0  0  0  0
   -0.1507   -0.7091   -0.0099 C   0  0  0  0  0  0  0  0  0  0  0  0
   -1.3982    0.9515    0.9074 H   0  0  0  0  0  0  0  0  0  0  0  0
   -1.4371    0.8178   -0.8197 H   0  0  0  0  0  0  0  0  0  0  0  0
   -0.1311   -1.2983    0.8911 H   0  0  0  0  0  0  0  0  0  0  0  0
    0.7153   -0.1465    0.1130 H   0  0  0  0  0  0  0  0  0  0  0  0
   -0.0832   -1.5463   -0.9108 H   0  0  0  0  0  0  0  0  0  0  0  0
  1  2  1  0  0  0  0
  1  3  1  0  0  0  0
  1  5  1  0  0  0  0
  2  8  1  0  0  0  0
  4  1  1  0  0  0  0
  6  2  1  0  0  0  0
  6 10  1  0  0  0  0
  7  2  1  0  0  0  0
  9  6  1  0  0  0  0
  9 13  1  0  0  0  0
  9 12  1  0  0  0  0
 11  6  1  0  0  0  0
 14  9  1  0  0  0  0
M  END
$$$$
