14
butane_opt
C  -3.913026   0.234134   0.045833
C  -2.722110  -0.576141  -0.009151
H  -4.880008  -0.402852   0.104970
H  -3.970131   0.819165  -0.795659
H  -3.942871   1.008829   0.913366
C  -1.430174   0.200432   0.009205
H  -2.744459  -1.297640  -0.940168
H  -2.663230  -1.166448   0.829051
C  -0.141177  -0.709855   0.063788
H  -1.509893   0.758111   0.776954
H  -1.387748   0.860934  -0.938572
H  -0.039127  -1.475086   1.046803
H   0.778119  -0.110589  -0.123340
H  -0.175248  -1.252281  -0.724557
