butane_opt
 OpenBabel08242015413D

 14 13  0  0  0  0  0  0  0  0999 V2000
   -3.9551    0.2423    0.0683 C   0  0  0  0  0  0  0  0  0  0  0  0
   -2.7076   -0.5799   -0.0108 C   0  0  0  0  0  0  0  0  0  0  0  0
   -4.9224   -0.4294    0.1372 H   0  0  0  0  0  0  0  0  0  0  0  0
   -4.0208    0.8504   -0.7957 H   0  0  0  0  0  0  0  0  0  0  0  0
   -3.8491    0.9563    0.9824 H   0  0  0  0  0  0  0  0  0  0  0  0
   -1.3971    0.1972   -0.0676 C   0  0  0  0  0  0  0  0  0  0  0  0
   -2.8205   -1.3089   -0.8789 H   0  0  0  0  0  0  0  0  0  0  0  0
   -2.7316   -1.1524    0.8790 H   0  0  0  0  0  0  0  0  0  0  0  0
   -0.1377   -0.7092    0.0944 C   0  0  0  0  0  0  0  0  0  0  0  0
   -1.3842    0.8281    0.7288 H   0  0  0  0  0  0  0  0  0  0  0  0
   -1.3913    0.9348   -1.0150 H   0  0  0  0  0  0  0  0  0  0  0  0
   -0.1845   -1.2714    0.9576 H   0  0  0  0  0  0  0  0  0  0  0  0
    0.7143   -0.2188    0.2637 H   0  0  0  0  0  0  0  0  0  0  0  0
   -0.0440   -1.4894   -0.8281 H   0  0  0  0  0  0  0  0  0  0  0  0
  1  3  1  0  0  0  0
  1  5  1  0  0  0  0
  2  1  1  0  0  0  0
  2  8  1  0  0  0  0
  4  1  1  0  0  0  0
  6  2  1  0  0  0  0
  6  9  1  0  0  0  0
  6 10  1  0  0  0  0
  7  2  1  0  0  0  0
  9 13  1  0  0  0  0
  9 12  1  0  0  0  0
 11  6  1  0  0  0  0
 14  9  1  0  0  0  0
M  END
$$$$
