butane_opt
 OpenBabel08242015413D

 14 13  0  0  0  0  0  0  0  0999 V2000
   -3.9277    0.2585    0.0540 C   0  0  0  0  0  0  0  0  0  0  0  0
   -2.6938   -0.6077   -0.0013 C   0  0  0  0  0  0  0  0  0  0  0  0
   -4.8762   -0.3522    0.1028 H   0  0  0  0  0  0  0  0  0  0  0  0
   -4.0119    0.8230   -0.7959 H   0  0  0  0  0  0  0  0  0  0  0  0
   -3.9044    0.9353    0.9144 H   0  0  0  0  0  0  0  0  0  0  0  0
   -1.4185    0.1886   -0.0422 C   0  0  0  0  0  0  0  0  0  0  0  0
   -2.7456   -1.2676   -0.8410 H   0  0  0  0  0  0  0  0  0  0  0  0
   -2.7058   -1.2371    0.8987 H   0  0  0  0  0  0  0  0  0  0  0  0
   -0.1642   -0.6956    0.0702 C   0  0  0  0  0  0  0  0  0  0  0  0
   -1.4514    0.8631    0.8378 H   0  0  0  0  0  0  0  0  0  0  0  0
   -1.3604    0.8407   -0.9540 H   0  0  0  0  0  0  0  0  0  0  0  0
   -0.1416   -1.2922    0.9586 H   0  0  0  0  0  0  0  0  0  0  0  0
    0.7109   -0.1322    0.1378 H   0  0  0  0  0  0  0  0  0  0  0  0
   -0.0846   -1.3886   -0.7874 H   0  0  0  0  0  0  0  0  0  0  0  0
  1  3  1  0  0  0  0
  1  5  1  0  0  0  0
  2  1  1  0  0  0  0
  2  8  1  0  0  0  0
  4  1  1  0  0  0  0
  6  2  1  0  0  0  0
  6  9  1  0  0  0  0
  6 10  1  0  0  0  0
  7  2  1  0  0  0  0
  9 13  1  0  0  0  0
  9 12  1  0  0  0  0
 11  6  1  0  0  0  0
 14  9  1  0  0  0  0
M  END
$$$$
