butane_opt
 OpenBabel08242015413D

 14 13  0  0  0  0  0  0  0  0999 V2000
   -3.9531    0.2605    0.0213 C   0  0  0  0  0  0  0  0  0  0  0  0
   -2.7197   -0.6130    0.0628 C   0  0  0  0  0  0  0  0  0  0  0  0
   -4.8656   -0.3572    0.0742 H   0  0  0  0  0  0  0  0  0  0  0  0
   -3.9506    0.9269   -0.9313 H   0  0  0  0  0  0  0  0  0  0  0  0
   -4.0040    0.8279    0.8495 H   0  0  0  0  0  0  0  0  0  0  0  0
   -1.4146    0.2107   -0.0169 C   0  0  0  0  0  0  0  0  0  0  0  0
   -2.7848   -1.3338   -0.8137 H   0  0  0  0  0  0  0  0  0  0  0  0
   -2.6976   -1.1887    0.9648 H   0  0  0  0  0  0  0  0  0  0  0  0
   -0.1253   -0.7184    0.0370 C   0  0  0  0  0  0  0  0  0  0  0  0
   -1.4448    0.8561    0.8182 H   0  0  0  0  0  0  0  0  0  0  0  0
   -1.3444    0.8279   -0.8934 H   0  0  0  0  0  0  0  0  0  0  0  0
   -0.1944   -1.1020    0.7788 H   0  0  0  0  0  0  0  0  0  0  0  0
    0.7992   -0.0997    0.1939 H   0  0  0  0  0  0  0  0  0  0  0  0
    0.0215   -1.5074   -0.8910 H   0  0  0  0  0  0  0  0  0  0  0  0
  1  2  1  0  0  0  0
  1  3  1  0  0  0  0
  1  5  1  0  0  0  0
  2  8  1  0  0  0  0
  4  1  1  0  0  0  0
  6  9  1  0  0  0  0
  6  2  1  0  0  0  0
  6 10  1  0  0  0  0
  7  2  1  0  0  0  0
  9 13  1  0  0  0  0
  9 12  1  0  0  0  0
 11  6  1  0  0  0  0
 14  9  1  0  0  0  0
M  END
$$$$
