14
butane_opt
C  -3.957495   0.276418   0.039273
C  -2.690627  -0.628025   0.026265
H  -4.878495  -0.339526   0.026151
H  -4.083154   0.837188  -0.811705
H  -4.029519   1.029588   0.997337
C  -1.391105   0.163017  -0.043078
H  -2.739046  -1.261494  -0.781407
H  -2.684826  -1.259728   0.901821
C  -0.147145  -0.679532   0.063854
H  -1.506677   0.776100   0.798437
H  -1.330373   0.833572  -0.963716
H  -0.203670  -1.201644   0.902503
H   0.786239  -0.041415   0.195710
H  -0.114973  -1.427129  -0.869235
