butane_opt
 OpenBabel08242015413D

 14 13  0  0  0  0  0  0  0  0999 V2000
   -3.9363    0.2561   -0.0201 C   0  0  0  0  0  0  0  0  0  0  0  0
   -2.7097   -0.6008    0.0598 C   0  0  0  0  0  0  0  0  0  0  0  0
   -4.8532   -0.3789    0.2984 H   0  0  0  0  0  0  0  0  0  0  0  0
   -4.0194    1.0166   -1.0292 H   0  0  0  0  0  0  0  0  0  0  0  0
   -3.8694    0.6942    0.7201 H   0  0  0  0  0  0  0  0  0  0  0  0
   -1.4035    0.2185    0.0551 C   0  0  0  0  0  0  0  0  0  0  0  0
   -2.7223   -1.2684   -0.8073 H   0  0  0  0  0  0  0  0  0  0  0  0
   -2.8737   -1.2186    0.9817 H   0  0  0  0  0  0  0  0  0  0  0  0
   -0.1600   -0.7166    0.0087 C   0  0  0  0  0  0  0  0  0  0  0  0
   -1.3702    0.9161    0.8878 H   0  0  0  0  0  0  0  0  0  0  0  0
   -1.4200    0.7416   -0.7951 H   0  0  0  0  0  0  0  0  0  0  0  0
    0.0016   -1.1989    0.7939 H   0  0  0  0  0  0  0  0  0  0  0  0
    0.6998   -0.1852    0.0731 H   0  0  0  0  0  0  0  0  0  0  0  0
   -0.0823   -1.4737   -0.9394 H   0  0  0  0  0  0  0  0  0  0  0  0
  1  2  1  0  0  0  0
  1  3  1  0  0  0  0
  1  5  1  0  0  0  0
  2  8  1  0  0  0  0
  4  1  1  0  0  0  0
  6  2  1  0  0  0  0
  6 10  1  0  0  0  0
  7  2  1  0  0  0  0
  9  6  1  0  0  0  0
  9 13  1  0  0  0  0
  9 12  1  0  0  0  0
 11  6  1  0  0  0  0
 14  9  1  0  0  0  0
M  END
$$$$
