14
butane_opt
C  -3.941908   0.273715   0.071050
C  -2.718019  -0.644733  -0.009831
H  -4.793338  -0.267828  -0.073374
H  -3.887869   0.838527  -0.807240
H  -4.018086   1.078373   1.002566
C  -1.397633   0.184581  -0.021840
H  -2.759655  -1.419631  -0.923826
H  -2.668864  -1.152923   0.809073
C  -0.165444  -0.687390   0.076711
H  -1.416019   0.846429   0.821958
H  -1.360445   0.873405  -1.009683
H  -0.040243  -1.535441   1.108187
H   0.819885  -0.075636  -0.128555
H  -0.244698  -1.153092  -0.712222
