14
butane_opt
C  -3.950901   0.246315  -0.017390
C  -2.714537  -0.594877   0.067973
H  -4.900004  -0.365220  -0.023485
H  -3.897377   0.909529  -0.992841
H  -4.022476   0.892058   0.840954
C  -1.399671   0.213894   0.079976
H  -2.759092  -1.289468  -0.820286
H  -2.818518  -1.158823   0.931096
C  -0.123466  -0.725868  -0.013768
H  -1.384043   0.875894   0.951539
H  -1.416924   0.794158  -0.745864
H  -0.078745  -1.455331   0.979305
H   0.761018  -0.117320  -0.289802
H  -0.223325  -1.235048  -0.790455
