14
butane_opt
C  -3.966862   0.253699   0.037786
C  -2.701064  -0.623004   0.001032
H  -4.895443  -0.334135  -0.040939
H  -3.983837   0.766990  -0.767164
H  -3.963946   1.026039   0.938701
C  -1.391816   0.207813   0.004386
H  -2.760607  -1.241701  -0.859932
H  -2.637124  -1.261801   0.875574
C  -0.153331  -0.707924   0.055146
H  -1.432735   0.924037   0.843935
H  -1.359275   0.876327  -0.891753
H   0.045533  -1.483722   1.015006
H   0.717330  -0.152731  -0.135687
H  -0.188117  -1.173252  -0.691375
