14
butane_opt
C  -3.927136   0.241078   0.015026
C  -2.696556  -0.588505   0.052740
H  -4.892731  -0.389044   0.094359
H  -3.897715   0.923375  -0.878426
H  -3.946756   0.884902   0.845447
C  -1.430785   0.206006  -0.007808
H  -2.750886  -1.311985  -0.789565
H  -2.672963  -1.268439   0.992937
C  -0.170103  -0.701979   0.044359
H  -1.408708   0.809702   0.798905
H  -1.379862   0.884593  -0.942014
H  -0.096752  -1.124935   0.801383
H   0.707277  -0.150544   0.215361
H   0.009284  -1.617995  -0.979002
