butane_opt
 OpenBabel08242015413D

 14 13  0  0  0  0  0  0  0  0999 V2000
   -3.9431    0.2494    0.0202 C   0  0  0  0  0  0  0  0  0  0  0  0
   -2.7196   -0.6071    0.0623 C   0  0  0  0  0  0  0  0  0  0  0  0
   -4.9171   -0.4007    0.0948 H   0  0  0  0  0  0  0  0  0  0  0  0
   -3.9276    0.9799   -0.9884 H   0  0  0  0  0  0  0  0  0  0  0  0
   -3.9556    0.8457    0.8253 H   0  0  0  0  0  0  0  0  0  0  0  0
   -1.3951    0.2170    0.0002 C   0  0  0  0  0  0  0  0  0  0  0  0
   -2.8200   -1.2677   -0.8244 H   0  0  0  0  0  0  0  0  0  0  0  0
   -2.7200   -1.2028    0.9103 H   0  0  0  0  0  0  0  0  0  0  0  0
   -0.1519   -0.7137    0.0360 C   0  0  0  0  0  0  0  0  0  0  0  0
   -1.4000    0.8680    0.8034 H   0  0  0  0  0  0  0  0  0  0  0  0
   -1.4060    0.8579   -0.8826 H   0  0  0  0  0  0  0  0  0  0  0  0
   -0.0897   -1.1600    0.8167 H   0  0  0  0  0  0  0  0  0  0  0  0
    0.6776   -0.1704    0.1682 H   0  0  0  0  0  0  0  0  0  0  0  0
    0.0580   -1.5863   -0.9407 H   0  0  0  0  0  0  0  0  0  0  0  0
  1  2  1  0  0  0  0
  1  3  1  0  0  0  0
  1  5  1  0  0  0  0
  2  8  1  0  0  0  0
  4  1  1  0  0  0  0
  6  9  1  0  0  0  0
  6  2  1  0  0  0  0
  6 10  1  0  0  0  0
  7  2  1  0  0  0  0
  9 13  1  0  0  0  0
  9 12  1  0  0  0  0
 11  6  1  0  0  0  0
 14  9  1  0  0  0  0
M  END
$$$$
