butane_opt
 OpenBabel08242015413D

 14 13  0  0  0  0  0  0  0  0999 V2000
   -3.9824    0.2837   -0.0293 C   0  0  0  0  0  0  0  0  0  0  0  0
   -2.6754   -0.6353    0.1047 C   0  0  0  0  0  0  0  0  0  0  0  0
   -4.8633   -0.2800    0.0258 H   0  0  0  0  0  0  0  0  0  0  0  0
   -3.9597    0.9012   -0.9623 H   0  0  0  0  0  0  0  0  0  0  0  0
   -4.0692    0.9123    0.7894 H   0  0  0  0  0  0  0  0  0  0  0  0
   -1.3830    0.1635    0.0547 C   0  0  0  0  0  0  0  0  0  0  0  0
   -2.6003   -1.2557   -0.7370 H   0  0  0  0  0  0  0  0  0  0  0  0
   -2.8296   -1.3057    1.0596 H   0  0  0  0  0  0  0  0  0  0  0  0
   -0.1663   -0.6754   -0.0145 C   0  0  0  0  0  0  0  0  0  0  0  0
   -1.3029    0.7635    0.8339 H   0  0  0  0  0  0  0  0  0  0  0  0
   -1.4006    0.8044   -0.8703 H   0  0  0  0  0  0  0  0  0  0  0  0
   -0.1230   -1.0626    0.7132 H   0  0  0  0  0  0  0  0  0  0  0  0
    0.7221   -0.0620    0.1728 H   0  0  0  0  0  0  0  0  0  0  0  0
   -0.1167   -1.5221   -0.9752 H   0  0  0  0  0  0  0  0  0  0  0  0
  1  3  1  0  0  0  0
  1  2  1  0  0  0  0
  1  5  1  0  0  0  0
  2  8  1  0  0  0  0
  4  1  1  0  0  0  0
  6  2  1  0  0  0  0
  6 10  1  0  0  0  0
  7  2  1  0  0  0  0
  9  6  1  0  0  0  0
  9 13  1  0  0  0  0
  9 12  1  0  0  0  0
 11  6  1  0  0  0  0
 14  9  1  0  0  0  0
M  END
$$$$
