butane_opt
 OpenBabel08242015413D

 14 13  0  0  0  0  0  0  0  0999 V2000
   -3.9456    0.2618   -0.0173 C   0  0  0  0  0  0  0  0  0  0  0  0
   -2.7106   -0.6136    0.0563 C   0  0  0  0  0  0  0  0  0  0  0  0
   -4.8090   -0.3245    0.2898 H   0  0  0  0  0  0  0  0  0  0  0  0
   -3.9624    1.1667   -1.1230 H   0  0  0  0  0  0  0  0  0  0  0  0
   -3.9578    0.6941    0.7038 H   0  0  0  0  0  0  0  0  0  0  0  0
   -1.3990    0.1925    0.0700 C   0  0  0  0  0  0  0  0  0  0  0  0
   -2.8483   -1.3617   -0.8257 H   0  0  0  0  0  0  0  0  0  0  0  0
   -2.7181   -1.2224    0.9633 H   0  0  0  0  0  0  0  0  0  0  0  0
   -0.1493   -0.6958   -0.0029 C   0  0  0  0  0  0  0  0  0  0  0  0
   -1.3637    0.9126    0.9482 H   0  0  0  0  0  0  0  0  0  0  0  0
   -1.4241    0.7750   -0.7631 H   0  0  0  0  0  0  0  0  0  0  0  0
   -0.0787   -1.2363    0.8309 H   0  0  0  0  0  0  0  0  0  0  0  0
    0.7430   -0.1158    0.0170 H   0  0  0  0  0  0  0  0  0  0  0  0
   -0.1533   -1.4798   -0.9136 H   0  0  0  0  0  0  0  0  0  0  0  0
  1  2  1  0  0  0  0
  1  3  1  0  0  0  0
  1  5  1  0  0  0  0
  2  6  1  0  0  0  0
  2  8  1  0  0  0  0
  4  1  1  0  0  0  0
  6 10  1  0  0  0  0
  7  2  1  0  0  0  0
  9 13  1  0  0  0  0
  9  6  1  0  0  0  0
  9 12  1  0  0  0  0
 11  6  1  0  0  0  0
 14  9  1  0  0  0  0
M  END
$$$$
