14
butane_opt
C  -3.984103   0.274906  -0.010348
C  -2.686679  -0.630877   0.063676
H  -4.814841  -0.296820  -0.009038
H  -3.943186   0.923417  -0.918330
H  -4.063778   0.918876   0.841798
C  -1.396888   0.171123   0.042770
H  -2.676665  -1.288181  -0.771910
H  -2.808928  -1.286593   0.989536
C  -0.143555  -0.673018  -0.011111
H  -1.325637   0.933558   1.011061
H  -1.436312   0.719675  -0.776162
H  -0.080906  -1.451017   0.974206
H   0.796854  -0.049985  -0.060303
H  -0.156844  -1.280998  -0.843988
