butane_opt
 OpenBabel08242015413D

 14 13  0  0  0  0  0  0  0  0999 V2000
   -3.9563    0.2682   -0.0476 C   0  0  0  0  0  0  0  0  0  0  0  0
   -2.7077   -0.6148    0.0782 C   0  0  0  0  0  0  0  0  0  0  0  0
   -4.8392   -0.3406   -0.0158 H   0  0  0  0  0  0  0  0  0  0  0  0
   -4.0225    0.9816   -0.9875 H   0  0  0  0  0  0  0  0  0  0  0  0
   -3.9904    0.9203    0.8377 H   0  0  0  0  0  0  0  0  0  0  0  0
   -1.3786    0.1727    0.0868 C   0  0  0  0  0  0  0  0  0  0  0  0
   -2.7345   -1.2126   -0.6680 H   0  0  0  0  0  0  0  0  0  0  0  0
   -2.7644   -1.3033    1.0037 H   0  0  0  0  0  0  0  0  0  0  0  0
   -0.1554   -0.6960   -0.0194 C   0  0  0  0  0  0  0  0  0  0  0  0
   -1.3620    0.9397    0.9914 H   0  0  0  0  0  0  0  0  0  0  0  0
   -1.4531    0.6928   -0.7216 H   0  0  0  0  0  0  0  0  0  0  0  0
   -0.0000   -1.3420    0.8630 H   0  0  0  0  0  0  0  0  0  0  0  0
    0.7947   -0.0508   -0.2097 H   0  0  0  0  0  0  0  0  0  0  0  0
   -0.2781   -1.2995   -0.8405 H   0  0  0  0  0  0  0  0  0  0  0  0
  1  3  1  0  0  0  0
  1  2  1  0  0  0  0
  1  5  1  0  0  0  0
  2  6  1  0  0  0  0
  2  8  1  0  0  0  0
  4  1  1  0  0  0  0
  6 10  1  0  0  0  0
  7  2  1  0  0  0  0
  9  6  1  0  0  0  0
  9 12  1  0  0  0  0
 11  6  1  0  0  0  0
 13  9  1  0  0  0  0
 14  9  1  0  0  0  0
M  END
$$$$
