14
butane_opt
C  -3.982409   0.283660  -0.029268
C  -2.675429  -0.635349   0.104703
H  -4.863273  -0.279979   0.025751
H  -3.959693   0.901151  -0.962310
H  -4.069228   0.912265   0.789432
C  -1.383012   0.163519   0.054728
H  -2.600312  -1.255690  -0.737039
H  -2.829589  -1.305706   1.059645
C  -0.166263  -0.675389  -0.014541
H  -1.302911   0.763476   0.833886
H  -1.400589   0.804363  -0.870279
H  -0.122989  -1.062615   0.713179
H   0.722079  -0.061968   0.172776
H  -0.116704  -1.522108  -0.975166
