14
butane_opt
C  -3.943104   0.249391   0.020225
C  -2.719601  -0.607129   0.062333
H  -4.917068  -0.400701   0.094817
H  -3.927600   0.979937  -0.988393
H  -3.955625   0.845656   0.825281
C  -1.395110   0.216963   0.000204
H  -2.819978  -1.267731  -0.824385
H  -2.719977  -1.202807   0.910293
C  -0.151948  -0.713661   0.036045
H  -1.400030   0.867995   0.803377
H  -1.405997   0.857873  -0.882590
H  -0.089666  -1.159957   0.816692
H   0.677553  -0.170406   0.168240
H   0.057990  -1.586256  -0.940701
