butane_opt
 OpenBabel08242015413D

 14 13  0  0  0  0  0  0  0  0999 V2000
   -3.9611    0.2643    0.0767 C   0  0  0  0  0  0  0  0  0  0  0  0
   -2.7052   -0.6256   -0.0373 C   0  0  0  0  0  0  0  0  0  0  0  0
   -4.8087   -0.2811    0.1623 H   0  0  0  0  0  0  0  0  0  0  0  0
   -4.0793    0.9748   -0.8649 H   0  0  0  0  0  0  0  0  0  0  0  0
   -3.9176    0.8825    0.8861 H   0  0  0  0  0  0  0  0  0  0  0  0
   -1.3917    0.1816   -0.0289 C   0  0  0  0  0  0  0  0  0  0  0  0
   -2.7797   -1.3600   -0.9114 H   0  0  0  0  0  0  0  0  0  0  0  0
   -2.6579   -1.1877    0.8237 H   0  0  0  0  0  0  0  0  0  0  0  0
   -0.1618   -0.6937    0.0702 C   0  0  0  0  0  0  0  0  0  0  0  0
   -1.3923    0.9367    0.8648 H   0  0  0  0  0  0  0  0  0  0  0  0
   -1.2257    0.8112   -0.9005 H   0  0  0  0  0  0  0  0  0  0  0  0
   -0.1162   -1.4294    1.0823 H   0  0  0  0  0  0  0  0  0  0  0  0
    0.7013   -0.1115   -0.0031 H   0  0  0  0  0  0  0  0  0  0  0  0
   -0.1084   -1.2268   -0.6736 H   0  0  0  0  0  0  0  0  0  0  0  0
  1  3  1  0  0  0  0
  1  5  1  0  0  0  0
  2  6  1  0  0  0  0
  2  1  1  0  0  0  0
  2  8  1  0  0  0  0
  4  1  1  0  0  0  0
  6  9  1  0  0  0  0
  6 10  1  0  0  0  0
  7  2  1  0  0  0  0
  9 12  1  0  0  0  0
 11  6  1  0  0  0  0
 13  9  1  0  0  0  0
 14  9  1  0  0  0  0
M  END
$$$$
