14
butane_opt
C  -3.934154   0.281617   0.051735
C  -2.684499  -0.615274  -0.008937
H  -4.829827  -0.308537  -0.020939
H  -3.954017   0.696706  -0.687603
H  -4.036050   1.068161   0.998949
C  -1.394438   0.156519  -0.036044
H  -2.793372  -1.345199  -0.931729
H  -2.692777  -1.213364   0.876185
C  -0.174936  -0.688447   0.075095
H  -1.388406   0.879071   0.878892
H  -1.388214   0.801592  -0.913457
H  -0.181370  -1.526770   1.112663
H   0.752867  -0.010237  -0.185074
H  -0.256395  -1.124296  -0.630576
