butane_opt
 OpenBabel08242015413D

 14 13  0  0  0  0  0  0  0  0999 V2000
   -3.9342    0.2816    0.0517 C   0  0  0  0  0  0  0  0  0  0  0  0
   -2.6845   -0.6153   -0.0089 C   0  0  0  0  0  0  0  0  0  0  0  0
   -4.8298   -0.3085   -0.0209 H   0  0  0  0  0  0  0  0  0  0  0  0
   -3.9540    0.6967   -0.6876 H   0  0  0  0  0  0  0  0  0  0  0  0
   -4.0361    1.0682    0.9989 H   0  0  0  0  0  0  0  0  0  0  0  0
   -1.3944    0.1565   -0.0360 C   0  0  0  0  0  0  0  0  0  0  0  0
   -2.7934   -1.3452   -0.9317 H   0  0  0  0  0  0  0  0  0  0  0  0
   -2.6928   -1.2134    0.8762 H   0  0  0  0  0  0  0  0  0  0  0  0
   -0.1749   -0.6884    0.0751 C   0  0  0  0  0  0  0  0  0  0  0  0
   -1.3884    0.8791    0.8789 H   0  0  0  0  0  0  0  0  0  0  0  0
   -1.3882    0.8016   -0.9135 H   0  0  0  0  0  0  0  0  0  0  0  0
   -0.1814   -1.5268    1.1127 H   0  0  0  0  0  0  0  0  0  0  0  0
    0.7529   -0.0102   -0.1851 H   0  0  0  0  0  0  0  0  0  0  0  0
   -0.2564   -1.1243   -0.6306 H   0  0  0  0  0  0  0  0  0  0  0  0
  1  5  1  0  0  0  0
  2  1  1  0  0  0  0
  2  8  1  0  0  0  0
  3  1  1  0  0  0  0
  4  1  1  0  0  0  0
  6  2  1  0  0  0  0
  6  9  1  0  0  0  0
  6 10  1  0  0  0  0
  7  2  1  0  0  0  0
  9 12  1  0  0  0  0
 11  6  1  0  0  0  0
 13  9  1  0  0  0  0
 14  9  1  0  0  0  0
M  END
$$$$
