14
butane_opt
C  -3.954404   0.282453   0.040545
C  -2.685224  -0.641395   0.011611
H  -4.815549  -0.275704  -0.007070
H  -4.037424   0.798274  -0.736217
H  -4.102250   1.110747   0.975603
C  -1.402275   0.165038  -0.022489
H  -2.748489  -1.450690  -0.904407
H  -2.771313  -1.219800   0.848489
C  -0.151678  -0.664233   0.063476
H  -1.359951   0.807281   0.827499
H  -1.411746   0.786461  -0.877065
H  -0.114616  -1.479913   1.079146
H   0.800896  -0.078657  -0.164390
H  -0.152692  -1.149738  -0.679671
