14
butane_opt
C  -3.930038   0.251287   0.058867
C  -2.736228  -0.587643   0.013133
H  -4.880176  -0.389288  -0.207679
H  -3.981146   0.643689  -0.711632
H  -4.022250   1.159949   1.091866
C  -1.403427   0.193762  -0.059215
H  -2.780372  -1.317712  -0.849909
H  -2.695724  -1.222599   0.906193
C  -0.135145  -0.714083   0.071636
H  -1.317274   0.877170   0.794119
H  -1.446897   0.872193  -0.947752
H  -0.150146  -1.435729   1.079525
H   0.770140  -0.144497  -0.040609
H  -0.042676  -1.246192  -0.656205
