butane_opt
 OpenBabel08242015413D

 14 13  0  0  0  0  0  0  0  0999 V2000
   -3.9544    0.2825    0.0405 C   0  0  0  0  0  0  0  0  0  0  0  0
   -2.6852   -0.6414    0.0116 C   0  0  0  0  0  0  0  0  0  0  0  0
   -4.8155   -0.2757   -0.0071 H   0  0  0  0  0  0  0  0  0  0  0  0
   -4.0374    0.7983   -0.7362 H   0  0  0  0  0  0  0  0  0  0  0  0
   -4.1022    1.1107    0.9756 H   0  0  0  0  0  0  0  0  0  0  0  0
   -1.4023    0.1650   -0.0225 C   0  0  0  0  0  0  0  0  0  0  0  0
   -2.7485   -1.4507   -0.9044 H   0  0  0  0  0  0  0  0  0  0  0  0
   -2.7713   -1.2198    0.8485 H   0  0  0  0  0  0  0  0  0  0  0  0
   -0.1517   -0.6642    0.0635 C   0  0  0  0  0  0  0  0  0  0  0  0
   -1.3600    0.8073    0.8275 H   0  0  0  0  0  0  0  0  0  0  0  0
   -1.4117    0.7865   -0.8771 H   0  0  0  0  0  0  0  0  0  0  0  0
   -0.1146   -1.4799    1.0791 H   0  0  0  0  0  0  0  0  0  0  0  0
    0.8009   -0.0787   -0.1644 H   0  0  0  0  0  0  0  0  0  0  0  0
   -0.1527   -1.1497   -0.6797 H   0  0  0  0  0  0  0  0  0  0  0  0
  1  5  1  0  0  0  0
  2  1  1  0  0  0  0
  2  8  1  0  0  0  0
  3  1  1  0  0  0  0
  4  1  1  0  0  0  0
  6  2  1  0  0  0  0
  6  9  1  0  0  0  0
  6 10  1  0  0  0  0
  7  2  1  0  0  0  0
  9 12  1  0  0  0  0
 11  6  1  0  0  0  0
 13  9  1  0  0  0  0
 14  9  1  0  0  0  0
M  END
$$$$
