butane_opt
 OpenBabel08242015413D

 14 13  0  0  0  0  0  0  0  0999 V2000
   -3.9298    0.2696    0.0410 C   0  0  0  0  0  0  0  0  0  0  0  0
   -2.7220   -0.6225    0.0123 C   0  0  0  0  0  0  0  0  0  0  0  0
   -4.8409   -0.3618    0.1980 H   0  0  0  0  0  0  0  0  0  0  0  0
   -4.0949    1.0447   -0.9557 H   0  0  0  0  0  0  0  0  0  0  0  0
   -3.9134    0.7744    0.8092 H   0  0  0  0  0  0  0  0  0  0  0  0
   -1.3973    0.2004   -0.0011 C   0  0  0  0  0  0  0  0  0  0  0  0
   -2.8490   -1.4316   -0.9290 H   0  0  0  0  0  0  0  0  0  0  0  0
   -2.6693   -1.1817    0.8448 H   0  0  0  0  0  0  0  0  0  0  0  0
   -0.1489   -0.7056    0.0510 C   0  0  0  0  0  0  0  0  0  0  0  0
   -1.4164    0.9275    0.8877 H   0  0  0  0  0  0  0  0  0  0  0  0
   -1.3882    0.8192   -0.9206 H   0  0  0  0  0  0  0  0  0  0  0  0
   -0.0888   -1.2712    0.9714 H   0  0  0  0  0  0  0  0  0  0  0  0
    0.7265   -0.1649    0.0454 H   0  0  0  0  0  0  0  0  0  0  0  0
   -0.1091   -1.3239   -0.7716 H   0  0  0  0  0  0  0  0  0  0  0  0
  1  3  1  0  0  0  0
  1  5  1  0  0  0  0
  2  1  1  0  0  0  0
  2  8  1  0  0  0  0
  4  1  1  0  0  0  0
  6  2  1  0  0  0  0
  6  9  1  0  0  0  0
  6 10  1  0  0  0  0
  7  2  1  0  0  0  0
  9 12  1  0  0  0  0
 11  6  1  0  0  0  0
 13  9  1  0  0  0  0
 14  9  1  0  0  0  0
M  END
$$$$
