butane_opt
 OpenBabel08242015413D

 14 13  0  0  0  0  0  0  0  0999 V2000
   -3.9698    0.2871    0.0431 C   0  0  0  0  0  0  0  0  0  0  0  0
   -2.7051   -0.6466    0.0106 C   0  0  0  0  0  0  0  0  0  0  0  0
   -4.8715   -0.2499   -0.0189 H   0  0  0  0  0  0  0  0  0  0  0  0
   -3.9165    0.8630   -0.8304 H   0  0  0  0  0  0  0  0  0  0  0  0
   -4.1288    0.9714    0.9248 H   0  0  0  0  0  0  0  0  0  0  0  0
   -1.3721    0.1755    0.0143 C   0  0  0  0  0  0  0  0  0  0  0  0
   -2.7152   -1.3774   -0.9071 H   0  0  0  0  0  0  0  0  0  0  0  0
   -2.7307   -1.1737    0.8012 H   0  0  0  0  0  0  0  0  0  0  0  0
   -0.1456   -0.6796    0.0454 C   0  0  0  0  0  0  0  0  0  0  0  0
   -1.3860    0.8476    0.8331 H   0  0  0  0  0  0  0  0  0  0  0  0
   -1.3569    0.7966   -0.8437 H   0  0  0  0  0  0  0  0  0  0  0  0
   -0.1160   -1.5502    1.1203 H   0  0  0  0  0  0  0  0  0  0  0  0
    0.8044   -0.0537   -0.2482 H   0  0  0  0  0  0  0  0  0  0  0  0
   -0.2984   -1.1764   -0.7180 H   0  0  0  0  0  0  0  0  0  0  0  0
  1  5  1  0  0  0  0
  2  6  1  0  0  0  0
  2  1  1  0  0  0  0
  2  8  1  0  0  0  0
  3  1  1  0  0  0  0
  4  1  1  0  0  0  0
  6  9  1  0  0  0  0
  6 10  1  0  0  0  0
  7  2  1  0  0  0  0
  9 12  1  0  0  0  0
 11  6  1  0  0  0  0
 13  9  1  0  0  0  0
 14  9  1  0  0  0  0
M  END
$$$$
