14
butane_opt
C  -3.935804   0.266778   0.008271
C  -2.720661  -0.602536   0.044190
H  -4.846414  -0.352077   0.273456
H  -4.021733   1.062600  -1.006963
H  -3.912561   0.658955   0.711300
C  -1.393859   0.186702   0.029939
H  -2.793861  -1.379172  -0.866027
H  -2.700938  -1.189128   0.888736
C  -0.157667  -0.695362   0.025295
H  -1.423379   0.954435   0.927940
H  -1.378647   0.798223  -0.857508
H  -0.111774  -1.234339   0.908653
H   0.720701  -0.172393   0.032968
H  -0.065327  -1.483712  -0.906201
