butane_opt
 OpenBabel08242015413D

 14 13  0  0  0  0  0  0  0  0999 V2000
   -3.9533    0.2744    0.0639 C   0  0  0  0  0  0  0  0  0  0  0  0
   -2.6984   -0.6371   -0.0274 C   0  0  0  0  0  0  0  0  0  0  0  0
   -4.8438   -0.2761    0.2870 H   0  0  0  0  0  0  0  0  0  0  0  0
   -4.1052    0.9509   -0.8563 H   0  0  0  0  0  0  0  0  0  0  0  0
   -3.9115    0.8205    0.9019 H   0  0  0  0  0  0  0  0  0  0  0  0
   -1.4063    0.1978   -0.0302 C   0  0  0  0  0  0  0  0  0  0  0  0
   -2.8312   -1.4220   -0.9592 H   0  0  0  0  0  0  0  0  0  0  0  0
   -2.6294   -1.1748    0.7964 H   0  0  0  0  0  0  0  0  0  0  0  0
   -0.1368   -0.6835    0.0892 C   0  0  0  0  0  0  0  0  0  0  0  0
   -1.4410    0.7787    0.7702 H   0  0  0  0  0  0  0  0  0  0  0  0
   -1.3744    0.8243   -0.9856 H   0  0  0  0  0  0  0  0  0  0  0  0
   -0.1917   -1.2726    0.9855 H   0  0  0  0  0  0  0  0  0  0  0  0
    0.7494   -0.1549    0.0850 H   0  0  0  0  0  0  0  0  0  0  0  0
   -0.1087   -1.3490   -0.7424 H   0  0  0  0  0  0  0  0  0  0  0  0
  1  3  1  0  0  0  0
  1  5  1  0  0  0  0
  2  1  1  0  0  0  0
  2  8  1  0  0  0  0
  4  1  1  0  0  0  0
  6  2  1  0  0  0  0
  6  9  1  0  0  0  0
  6 10  1  0  0  0  0
  7  2  1  0  0  0  0
  9 12  1  0  0  0  0
 11  6  1  0  0  0  0
 13  9  1  0  0  0  0
 14  9  1  0  0  0  0
M  END
$$$$
