14
butane_opt
C  -3.959187   0.276255   0.049870
C  -2.693859  -0.639529   0.015980
H  -4.779541  -0.242676   0.012961
H  -4.070345   0.923416  -0.847890
H  -3.965968   0.956962   0.955601
C  -1.378100   0.163866  -0.036799
H  -2.721286  -1.299375  -0.783896
H  -2.735829  -1.269267   0.884705
C  -0.173905  -0.676125   0.068494
H  -1.439671   0.876670   0.815433
H  -1.338552   0.832534  -0.973227
H  -0.186600  -1.221106   0.942300
H   0.781118  -0.065844   0.123937
H  -0.123080  -1.445353  -0.875845
