14
butane_opt
C  -3.969838   0.287114   0.043071
C  -2.705087  -0.646571   0.010616
H  -4.871473  -0.249932  -0.018914
H  -3.916537   0.863039  -0.830368
H  -4.128760   0.971361   0.924787
C  -1.372073   0.175478   0.014287
H  -2.715168  -1.377417  -0.907104
H  -2.730672  -1.173707   0.801204
C  -0.145557  -0.679643   0.045378
H  -1.385998   0.847610   0.833061
H  -1.356883   0.796608  -0.843696
H  -0.116023  -1.550229   1.120338
H   0.804437  -0.053654  -0.248240
H  -0.298369  -1.176362  -0.718048
