butane_opt
 OpenBabel08242015413D

 14 13  0  0  0  0  0  0  0  0999 V2000
   -3.9671    0.2808    0.0421 C   0  0  0  0  0  0  0  0  0  0  0  0
   -2.7087   -0.6379    0.0193 C   0  0  0  0  0  0  0  0  0  0  0  0
   -4.8165   -0.2473   -0.0712 H   0  0  0  0  0  0  0  0  0  0  0  0
   -3.9770    0.6990   -0.7160 H   0  0  0  0  0  0  0  0  0  0  0  0
   -4.0960    1.1539    1.0168 H   0  0  0  0  0  0  0  0  0  0  0  0
   -1.3739    0.1558   -0.0347 C   0  0  0  0  0  0  0  0  0  0  0  0
   -2.7738   -1.2752   -0.8111 H   0  0  0  0  0  0  0  0  0  0  0  0
   -2.6781   -1.2268    0.8641 H   0  0  0  0  0  0  0  0  0  0  0  0
   -0.1424   -0.6706    0.0786 C   0  0  0  0  0  0  0  0  0  0  0  0
   -1.4496    0.7527    0.7991 H   0  0  0  0  0  0  0  0  0  0  0  0
   -1.3397    0.8751   -1.0112 H   0  0  0  0  0  0  0  0  0  0  0  0
   -0.1553   -1.3349    0.9431 H   0  0  0  0  0  0  0  0  0  0  0  0
    0.7737   -0.0944   -0.0270 H   0  0  0  0  0  0  0  0  0  0  0  0
   -0.2136   -1.3070   -0.7854 H   0  0  0  0  0  0  0  0  0  0  0  0
  1  5  1  0  0  0  0
  2  1  1  0  0  0  0
  2  8  1  0  0  0  0
  3  1  1  0  0  0  0
  4  1  1  0  0  0  0
  6  2  1  0  0  0  0
  6  9  1  0  0  0  0
  6 10  1  0  0  0  0
  7  2  1  0  0  0  0
  9 12  1  0  0  0  0
 11  6  1  0  0  0  0
 13  9  1  0  0  0  0
 14  9  1  0  0  0  0
M  END
$$$$
