14
butane_opt
C  -3.948837   0.261111  -0.005105
C  -2.717831  -0.599297   0.045528
H  -4.890520  -0.374109   0.129964
H  -4.044637   0.918189  -0.924612
H  -3.863038   0.810249   0.785377
C  -1.399660   0.194151   0.039411
H  -2.730483  -1.258086  -0.794242
H  -2.729659  -1.224225   0.968274
C  -0.146280  -0.702131   0.018213
H  -1.366894   0.887746   0.900653
H  -1.406275   0.785708  -0.829617
H  -0.067818  -1.316664   0.867368
H   0.732411  -0.143812   0.007186
H  -0.103179  -1.406535  -0.862378
