14
butane_opt
C  -3.978939   0.295182  -0.009273
C  -2.686819  -0.642132   0.080954
H  -4.880792  -0.294350   0.134726
H  -3.957466   1.070384  -1.019730
H  -4.020800   0.751126   0.711945
C  -1.386184   0.159099   0.047320
H  -2.682262  -1.305410  -0.774548
H  -2.742170  -1.298612   0.982504
C  -0.164388  -0.678751  -0.002261
H  -1.317986   0.887930   0.897024
H  -1.371485   0.787296  -0.829045
H  -0.232533  -1.126489   0.800729
H   0.834756   0.001568   0.141237
H  -0.076008  -1.540144  -1.041394
