butane_opt
 OpenBabel08242015413D

 14 13  0  0  0  0  0  0  0  0999 V2000
   -3.9395    0.2564   -0.0208 C   0  0  0  0  0  0  0  0  0  0  0  0
   -2.7106   -0.6137    0.0791 C   0  0  0  0  0  0  0  0  0  0  0  0
   -4.8417   -0.3330    0.0020 H   0  0  0  0  0  0  0  0  0  0  0  0
   -3.9226    0.8651   -0.9079 H   0  0  0  0  0  0  0  0  0  0  0  0
   -4.0224    0.9426    0.8628 H   0  0  0  0  0  0  0  0  0  0  0  0
   -1.4029    0.1927    0.0455 C   0  0  0  0  0  0  0  0  0  0  0  0
   -2.6931   -1.2610   -0.7507 H   0  0  0  0  0  0  0  0  0  0  0  0
   -2.8044   -1.2076    0.9625 H   0  0  0  0  0  0  0  0  0  0  0  0
   -0.1550   -0.7020    0.0027 C   0  0  0  0  0  0  0  0  0  0  0  0
   -1.3799    0.8687    0.8924 H   0  0  0  0  0  0  0  0  0  0  0  0
   -1.4426    0.8610   -0.8372 H   0  0  0  0  0  0  0  0  0  0  0  0
   -0.0380   -1.3010    0.8828 H   0  0  0  0  0  0  0  0  0  0  0  0
    0.7581   -0.1089   -0.0427 H   0  0  0  0  0  0  0  0  0  0  0  0
   -0.1438   -1.4038   -0.8966 H   0  0  0  0  0  0  0  0  0  0  0  0
  1  3  1  0  0  0  0
  1  2  1  0  0  0  0
  1  5  1  0  0  0  0
  2  8  1  0  0  0  0
  4  1  1  0  0  0  0
  6  2  1  0  0  0  0
  6 10  1  0  0  0  0
  7  2  1  0  0  0  0
  9  6  1  0  0  0  0
  9 12  1  0  0  0  0
 11  6  1  0  0  0  0
 13  9  1  0  0  0  0
 14  9  1  0  0  0  0
M  END
$$$$
