14
butane_opt
C  -3.948169   0.259305  -0.010847
C  -2.705914  -0.625470   0.058827
H  -4.846749  -0.313225  -0.014627
H  -3.981786   0.886226  -0.941749
H  -3.950698   0.925524   0.852591
C  -1.411242   0.198502   0.051511
H  -2.716868  -1.260544  -0.765802
H  -2.780856  -1.218759   0.958356
C  -0.143998  -0.700470   0.006936
H  -1.400040   0.938022   0.941119
H  -1.396572   0.783118  -0.817755
H  -0.000695  -1.389654   0.942957
H   0.755704  -0.103356  -0.165952
H  -0.197927  -1.300689  -0.826112
