14
butane_opt
C  -3.961888   0.266560   0.038685
C  -2.697837  -0.617059   0.040838
H  -4.969319  -0.397802  -0.151985
H  -3.934194   0.717931  -0.713026
H  -4.040662   1.103789   0.991333
C  -1.390458   0.195141  -0.026803
H  -2.782431  -1.346341  -0.859725
H  -2.732763  -1.127003   0.857075
C  -0.145669  -0.706455   0.049578
H  -1.348043   0.801763   0.830299
H  -1.381286   0.939395  -1.004888
H  -0.140890  -1.452274   1.033060
H   0.784881  -0.091513   0.010213
H  -0.120370  -1.298215  -0.750113
