14
butane_opt
C  -3.948506   0.247166  -0.040639
C  -2.702593  -0.592789   0.130360
H  -4.929136  -0.378851  -0.269043
H  -3.904618   0.757193  -0.902059
H  -4.094396   0.990280   0.875922
C  -1.416159   0.217843   0.042174
H  -2.624726  -1.264687  -0.657097
H  -2.843916  -1.325592   1.092265
C  -0.133018  -0.713200  -0.033226
H  -1.302945   0.984673   0.972021
H  -1.488383   0.761422  -0.779776
H  -0.097292  -1.340837   0.889619
H   0.820335  -0.118864  -0.053765
H  -0.140397  -1.450323  -0.906305
