butane_opt
 OpenBabel08242015413D

 14 13  0  0  0  0  0  0  0  0999 V2000
   -3.9535    0.2429    0.0007 C   0  0  0  0  0  0  0  0  0  0  0  0
   -2.7107   -0.6113    0.0824 C   0  0  0  0  0  0  0  0  0  0  0  0
   -4.9057   -0.3285    0.0731 H   0  0  0  0  0  0  0  0  0  0  0  0
   -3.9605    0.9185   -0.9705 H   0  0  0  0  0  0  0  0  0  0  0  0
   -3.9622    0.8183    0.7829 H   0  0  0  0  0  0  0  0  0  0  0  0
   -1.4001    0.2291    0.0021 C   0  0  0  0  0  0  0  0  0  0  0  0
   -2.6178   -1.1975   -0.7224 H   0  0  0  0  0  0  0  0  0  0  0  0
   -2.7528   -1.2886    1.0300 H   0  0  0  0  0  0  0  0  0  0  0  0
   -0.1394   -0.7131   -0.0021 C   0  0  0  0  0  0  0  0  0  0  0  0
   -1.3427    0.9368    0.8931 H   0  0  0  0  0  0  0  0  0  0  0  0
   -1.4544    0.7997   -0.8153 H   0  0  0  0  0  0  0  0  0  0  0  0
   -0.2254   -1.1435    0.7804 H   0  0  0  0  0  0  0  0  0  0  0  0
    0.6769   -0.2107    0.3375 H   0  0  0  0  0  0  0  0  0  0  0  0
   -0.0096   -1.5765   -0.9623 H   0  0  0  0  0  0  0  0  0  0  0  0
  1  3  1  0  0  0  0
  1  2  1  0  0  0  0
  1  5  1  0  0  0  0
  2  8  1  0  0  0  0
  4  1  1  0  0  0  0
  6  2  1  0  0  0  0
  6 10  1  0  0  0  0
  7  2  1  0  0  0  0
  9  6  1  0  0  0  0
  9 13  1  0  0  0  0
  9 12  1  0  0  0  0
 11  6  1  0  0  0  0
 14  9  1  0  0  0  0
M  END
$$$$
