14
butane_opt
C  -3.919118   0.248163   0.059548
C  -2.721966  -0.575722  -0.017132
H  -4.899420  -0.414835   0.042431
H  -3.928342   0.798483  -0.796407
H  -3.826434   0.964966   0.976491
C  -1.415488   0.197292  -0.030285
H  -2.688025  -1.300524  -0.941957
H  -2.682348  -1.178258   0.866712
C  -0.170895  -0.714286   0.070923
H  -1.385021   0.871281   0.837157
H  -1.402909   0.751241  -0.848273
H  -0.052180  -1.544230   1.115342
H   0.721133  -0.128567  -0.092651
H  -0.143784  -1.161190  -0.681830
