14
butane_opt
C  -3.929537   0.249857   0.060563
C  -2.712317  -0.578629  -0.001689
H  -4.876728  -0.407814  -0.155372
H  -3.924786   0.596208  -0.646683
H  -3.859932   1.118421   1.052515
C  -1.408130   0.207684  -0.048750
H  -2.738918  -1.255096  -0.812546
H  -2.647217  -1.267790   0.932888
C  -0.157572  -0.723720   0.074588
H  -1.442909   0.791373   0.699366
H  -1.379328   0.881799  -0.969169
H  -0.255800  -1.405045   1.014610
H   0.713459  -0.136423   0.074270
H  -0.101152  -1.266964  -0.743956
