14
butane_opt
C  -3.939047   0.288065  -0.018074
C  -2.687708  -0.645276   0.061535
H  -4.818242  -0.310097   0.194824
H  -4.003105   1.124989  -1.070171
H  -3.923408   0.704104   0.688423
C  -1.411494   0.169306   0.087009
H  -2.556610  -1.344209  -0.785173
H  -2.707055  -1.308737   0.975703
C  -0.179444  -0.668967  -0.002770
H  -1.367559   0.888629   0.953298
H  -1.378658   0.789804  -0.860949
H  -0.140718  -1.174747   0.813838
H   0.725445  -0.090229  -0.030280
H  -0.250292  -1.457964  -1.004338
