14
butane_opt
C  -3.957601   0.279454   0.042310
C  -2.690157  -0.649020   0.018945
H  -4.799513  -0.256683  -0.178807
H  -4.043566   0.728582  -0.731367
H  -4.033056   1.145099   1.036279
C  -1.400652   0.172745  -0.015743
H  -2.735692  -1.294309  -0.842513
H  -2.725424  -1.295128   0.948940
C  -0.144053  -0.666310   0.050478
H  -1.355455   0.748533   0.742637
H  -1.396928   0.841790  -0.953215
H  -0.177026  -1.344716   1.025413
H   0.688404  -0.105461  -0.013669
H  -0.134698  -1.282823  -0.724841
