butane_opt
 OpenBabel08242015413D

 14 13  0  0  0  0  0  0  0  0999 V2000
   -3.9517    0.2542   -0.0256 C   0  0  0  0  0  0  0  0  0  0  0  0
   -2.7017   -0.6056    0.0950 C   0  0  0  0  0  0  0  0  0  0  0  0
   -4.9584   -0.4096   -0.1863 H   0  0  0  0  0  0  0  0  0  0  0  0
   -3.8409    0.7067   -0.8209 H   0  0  0  0  0  0  0  0  0  0  0  0
   -4.1018    1.0185    0.8741 H   0  0  0  0  0  0  0  0  0  0  0  0
   -1.4001    0.2167    0.0337 C   0  0  0  0  0  0  0  0  0  0  0  0
   -2.6752   -1.1258   -0.6833 H   0  0  0  0  0  0  0  0  0  0  0  0
   -2.7388   -1.3476    1.0705 H   0  0  0  0  0  0  0  0  0  0  0  0
   -0.1465   -0.7088    0.0033 C   0  0  0  0  0  0  0  0  0  0  0  0
   -1.3803    0.9336    0.8958 H   0  0  0  0  0  0  0  0  0  0  0  0
   -1.4666    0.7798   -0.8264 H   0  0  0  0  0  0  0  0  0  0  0  0
   -0.0129   -1.3389    0.8444 H   0  0  0  0  0  0  0  0  0  0  0  0
    0.7371   -0.1092   -0.0566 H   0  0  0  0  0  0  0  0  0  0  0  0
   -0.1739   -1.4814   -0.9336 H   0  0  0  0  0  0  0  0  0  0  0  0
  1  2  1  0  0  0  0
  1  5  1  0  0  0  0
  2  8  1  0  0  0  0
  3  1  1  0  0  0  0
  4  1  1  0  0  0  0
  6  2  1  0  0  0  0
  6 10  1  0  0  0  0
  7  2  1  0  0  0  0
  9  6  1  0  0  0  0
  9 12  1  0  0  0  0
 11  6  1  0  0  0  0
 13  9  1  0  0  0  0
 14  9  1  0  0  0  0
M  END
$$$$
