butane_opt
 OpenBabel08242015413D

 14 13  0  0  0  0  0  0  0  0999 V2000
   -3.9570    0.2534    0.0640 C   0  0  0  0  0  0  0  0  0  0  0  0
   -2.7086   -0.6159    0.0014 C   0  0  0  0  0  0  0  0  0  0  0  0
   -4.8305   -0.3355    0.0327 H   0  0  0  0  0  0  0  0  0  0  0  0
   -3.9989    0.7208   -0.7391 H   0  0  0  0  0  0  0  0  0  0  0  0
   -3.9547    0.9667    0.9723 H   0  0  0  0  0  0  0  0  0  0  0  0
   -1.4007    0.2263   -0.0401 C   0  0  0  0  0  0  0  0  0  0  0  0
   -2.7594   -1.3284   -0.8838 H   0  0  0  0  0  0  0  0  0  0  0  0
   -2.6936   -1.1853    0.8649 H   0  0  0  0  0  0  0  0  0  0  0  0
   -0.1339   -0.7024    0.0736 C   0  0  0  0  0  0  0  0  0  0  0  0
   -1.4295    0.7532    0.6883 H   0  0  0  0  0  0  0  0  0  0  0  0
   -1.4065    0.9649   -1.0475 H   0  0  0  0  0  0  0  0  0  0  0  0
   -0.2444   -1.3102    0.9913 H   0  0  0  0  0  0  0  0  0  0  0  0
    0.6822   -0.1847    0.1601 H   0  0  0  0  0  0  0  0  0  0  0  0
    0.0221   -1.4827   -0.7815 H   0  0  0  0  0  0  0  0  0  0  0  0
  1  5  1  0  0  0  0
  2  1  1  0  0  0  0
  2  8  1  0  0  0  0
  3  1  1  0  0  0  0
  4  1  1  0  0  0  0
  6  2  1  0  0  0  0
  6  9  1  0  0  0  0
  6 10  1  0  0  0  0
  7  2  1  0  0  0  0
  9 13  1  0  0  0  0
  9 12  1  0  0  0  0
 11  6  1  0  0  0  0
 14  9  1  0  0  0  0
M  END
$$$$
