14
butane_opt
C  -3.944119   0.239755  -0.040602
C  -2.708824  -0.602978   0.086146
H  -4.853951  -0.354595   0.019931
H  -3.923243   0.994544  -1.008504
H  -4.007021   0.846210   0.779842
C  -1.402961   0.226298   0.078769
H  -2.789797  -1.296133  -0.737280
H  -2.831940  -1.236562   1.016034
C  -0.140274  -0.724221  -0.025357
H  -1.414156   1.051771   1.067040
H  -1.412699   0.738220  -0.750417
H   0.051586  -1.425467   0.879328
H   0.751764  -0.140539  -0.196581
H  -0.233006  -1.308833  -0.826043
