14
butane_opt
C  -3.934825   0.274276   0.006282
C  -2.693760  -0.639242   0.070138
H  -4.845059  -0.312661  -0.133337
H  -3.939271   0.867955  -0.861041
H  -4.042541   1.033518   0.900642
C  -1.411141   0.175638   0.019399
H  -2.662719  -1.309416  -0.778169
H  -2.729866  -1.253007   0.954722
C  -0.165939  -0.684179   0.024181
H  -1.379797   0.850709   0.834574
H  -1.382710   0.824142  -0.890357
H  -0.119070  -1.282958   0.886389
H   0.763537  -0.057858  -0.045660
H  -0.217162  -1.353837  -0.863308
