butane_opt
 OpenBabel08242015413D

 14 13  0  0  0  0  0  0  0  0999 V2000
   -3.9189    0.2415   -0.0090 C   0  0  0  0  0  0  0  0  0  0  0  0
   -2.7177   -0.5927    0.0897 C   0  0  0  0  0  0  0  0  0  0  0  0
   -4.7913   -0.3461    0.0923 H   0  0  0  0  0  0  0  0  0  0  0  0
   -3.9531    0.8866   -0.9545 H   0  0  0  0  0  0  0  0  0  0  0  0
   -3.8727    0.8548    0.8126 H   0  0  0  0  0  0  0  0  0  0  0  0
   -1.4099    0.2221    0.0209 C   0  0  0  0  0  0  0  0  0  0  0  0
   -2.6968   -1.2801   -0.7863 H   0  0  0  0  0  0  0  0  0  0  0  0
   -2.7786   -1.2553    1.0180 H   0  0  0  0  0  0  0  0  0  0  0  0
   -0.1653   -0.7259    0.0060 C   0  0  0  0  0  0  0  0  0  0  0  0
   -1.4563    0.8759    0.8281 H   0  0  0  0  0  0  0  0  0  0  0  0
   -1.4058    0.9212   -0.9625 H   0  0  0  0  0  0  0  0  0  0  0  0
   -0.1814   -1.1263    0.7600 H   0  0  0  0  0  0  0  0  0  0  0  0
    0.7481   -0.1185    0.3099 H   0  0  0  0  0  0  0  0  0  0  0  0
   -0.0880   -1.6294   -0.9895 H   0  0  0  0  0  0  0  0  0  0  0  0
  1  2  1  0  0  0  0
  1  3  1  0  0  0  0
  1  5  1  0  0  0  0
  2  8  1  0  0  0  0
  4  1  1  0  0  0  0
  6  2  1  0  0  0  0
  6 10  1  0  0  0  0
  7  2  1  0  0  0  0
  9  6  1  0  0  0  0
  9 13  1  0  0  0  0
  9 12  1  0  0  0  0
 11  6  1  0  0  0  0
 14  9  1  0  0  0  0
M  END
$$$$
