butane_opt
 OpenBabel08242015413D

 14 13  0  0  0  0  0  0  0  0999 V2000
   -3.9299    0.2675    0.0790 C   0  0  0  0  0  0  0  0  0  0  0  0
   -2.6924   -0.6223   -0.0255 C   0  0  0  0  0  0  0  0  0  0  0  0
   -4.8109   -0.3037    0.1955 H   0  0  0  0  0  0  0  0  0  0  0  0
   -4.0569    0.8823   -0.8327 H   0  0  0  0  0  0  0  0  0  0  0  0
   -3.8739    0.9160    0.8902 H   0  0  0  0  0  0  0  0  0  0  0  0
   -1.3913    0.2012   -0.0551 C   0  0  0  0  0  0  0  0  0  0  0  0
   -2.7381   -1.3998   -0.9214 H   0  0  0  0  0  0  0  0  0  0  0  0
   -2.7098   -1.1987    0.8299 H   0  0  0  0  0  0  0  0  0  0  0  0
   -0.1869   -0.6984    0.0830 C   0  0  0  0  0  0  0  0  0  0  0  0
   -1.4889    0.8620    0.7934 H   0  0  0  0  0  0  0  0  0  0  0  0
   -1.4146    0.7597   -0.9305 H   0  0  0  0  0  0  0  0  0  0  0  0
   -0.1966   -1.3769    0.9958 H   0  0  0  0  0  0  0  0  0  0  0  0
    0.7672   -0.0768    0.1286 H   0  0  0  0  0  0  0  0  0  0  0  0
   -0.1046   -1.2881   -0.6716 H   0  0  0  0  0  0  0  0  0  0  0  0
  1  3  1  0  0  0  0
  1  5  1  0  0  0  0
  2  1  1  0  0  0  0
  2  8  1  0  0  0  0
  4  1  1  0  0  0  0
  6  2  1  0  0  0  0
  6  9  1  0  0  0  0
  6 10  1  0  0  0  0
  7  2  1  0  0  0  0
  9 13  1  0  0  0  0
  9 12  1  0  0  0  0
 11  6  1  0  0  0  0
 14  9  1  0  0  0  0
M  END
$$$$
