14
butane_opt
C  -3.937926   0.272345   0.074844
C  -2.701850  -0.631952  -0.001138
H  -4.855999  -0.287010   0.060483
H  -4.083044   0.842345  -0.767113
H  -3.882520   0.985593   0.948251
C  -1.394290   0.190247  -0.052444
H  -2.675799  -1.377822  -0.924695
H  -2.657035  -1.218642   0.839571
C  -0.176674  -0.684038   0.078143
H  -1.435822   0.734889   0.728983
H  -1.285828   0.916862  -1.050012
H  -0.301975  -1.298801   1.017959
H   0.729644  -0.109037   0.234670
H  -0.045948  -1.426843  -0.843956
