14
butane_opt
C  -3.945256   0.269645  -0.021631
C  -2.701218  -0.611226   0.084559
H  -4.864124  -0.329035  -0.065747
H  -3.881218   0.870631  -0.884698
H  -3.975652   0.976872   0.872219
C  -1.396553   0.170257   0.034891
H  -2.666860  -1.236414  -0.725535
H  -2.763110  -1.333107   1.027557
C  -0.168972  -0.686176  -0.002093
H  -1.351253   0.872267   0.897984
H  -1.448361   0.765780  -0.813003
H  -0.102924  -1.262508   0.869134
H   0.750577  -0.084190   0.031740
H  -0.186035  -1.419986  -0.914763
