14
butane_opt
C  -3.959880   0.282164   0.022514
C  -2.666468  -0.625383   0.032859
H  -4.916118  -0.327102  -0.115667
H  -3.980083   0.757292  -0.746300
H  -3.959775   1.149268   0.982111
C  -1.403967   0.158118  -0.020411
H  -2.705739  -1.293003  -0.798886
H  -2.613116  -1.389570   0.996396
C  -0.185719  -0.674034   0.049168
H  -1.374632   0.796831   0.834445
H  -1.339436   0.787515  -0.898535
H  -0.147219  -1.303702   0.964130
H   0.802394   0.004616   0.006985
H  -0.206056  -1.335047  -0.786563
