butane_opt
 OpenBabel08242015413D

 14 13  0  0  0  0  0  0  0  0999 V2000
   -3.9311    0.2609   -0.0173 C   0  0  0  0  0  0  0  0  0  0  0  0
   -2.7040   -0.6190    0.0669 C   0  0  0  0  0  0  0  0  0  0  0  0
   -4.8834   -0.3189    0.1588 H   0  0  0  0  0  0  0  0  0  0  0  0
   -4.0353    1.0012   -0.9915 H   0  0  0  0  0  0  0  0  0  0  0  0
   -3.9035    0.8829    0.8323 H   0  0  0  0  0  0  0  0  0  0  0  0
   -1.3976    0.1861    0.0319 C   0  0  0  0  0  0  0  0  0  0  0  0
   -2.6652   -1.2017   -0.7266 H   0  0  0  0  0  0  0  0  0  0  0  0
   -2.7000   -1.3067    0.9883 H   0  0  0  0  0  0  0  0  0  0  0  0
   -0.1855   -0.6980   -0.0066 C   0  0  0  0  0  0  0  0  0  0  0  0
   -1.3434    0.8844    0.9555 H   0  0  0  0  0  0  0  0  0  0  0  0
   -1.3983    0.7592   -0.8338 H   0  0  0  0  0  0  0  0  0  0  0  0
   -0.1562   -1.1854    0.8337 H   0  0  0  0  0  0  0  0  0  0  0  0
    0.7490   -0.0769    0.2109 H   0  0  0  0  0  0  0  0  0  0  0  0
   -0.0692   -1.4703   -0.9046 H   0  0  0  0  0  0  0  0  0  0  0  0
  1  2  1  0  0  0  0
  1  3  1  0  0  0  0
  1  5  1  0  0  0  0
  2  8  1  0  0  0  0
  4  1  1  0  0  0  0
  6  2  1  0  0  0  0
  6 10  1  0  0  0  0
  7  2  1  0  0  0  0
  9  6  1  0  0  0  0
  9 13  1  0  0  0  0
  9 12  1  0  0  0  0
 11  6  1  0  0  0  0
 14  9  1  0  0  0  0
M  END
$$$$
