14
butane_opt
C  -3.948277   0.283105  -0.041246
C  -2.688834  -0.631712   0.119518
H  -4.898628  -0.323417  -0.177398
H  -3.903573   0.871039  -0.911072
H  -4.026099   1.040605   0.832440
C  -1.406773   0.165142   0.044881
H  -2.543409  -1.251046  -0.650666
H  -2.749465  -1.389444   1.124200
C  -0.176500  -0.677269  -0.020030
H  -1.318698   0.866360   0.937636
H  -1.432191   0.674259  -0.772970
H  -0.135746  -1.197326   0.775417
H   0.803531   0.013575  -0.003413
H  -0.186159  -1.437267  -0.957523
