butane_opt
 OpenBabel08242015413D

 14 13  0  0  0  0  0  0  0  0999 V2000
   -3.9678    0.2761    0.0521 C   0  0  0  0  0  0  0  0  0  0  0  0
   -2.6821   -0.6300   -0.0003 C   0  0  0  0  0  0  0  0  0  0  0  0
   -4.8238   -0.2868    0.0995 H   0  0  0  0  0  0  0  0  0  0  0  0
   -4.0585    0.8260   -0.7741 H   0  0  0  0  0  0  0  0  0  0  0  0
   -3.8639    1.0680    0.9994 H   0  0  0  0  0  0  0  0  0  0  0  0
   -1.3870    0.1522   -0.0508 C   0  0  0  0  0  0  0  0  0  0  0  0
   -2.7813   -1.2359   -0.8221 H   0  0  0  0  0  0  0  0  0  0  0  0
   -2.6881   -1.2309    0.8858 H   0  0  0  0  0  0  0  0  0  0  0  0
   -0.1691   -0.6823    0.0821 C   0  0  0  0  0  0  0  0  0  0  0  0
   -1.3962    0.7728    0.7383 H   0  0  0  0  0  0  0  0  0  0  0  0
   -1.3581    0.8697   -0.9659 H   0  0  0  0  0  0  0  0  0  0  0  0
   -0.3534   -1.2279    0.9397 H   0  0  0  0  0  0  0  0  0  0  0  0
    0.7815   -0.0074    0.1808 H   0  0  0  0  0  0  0  0  0  0  0  0
   -0.0216   -1.4142   -0.8458 H   0  0  0  0  0  0  0  0  0  0  0  0
  1  3  1  0  0  0  0
  1  5  1  0  0  0  0
  2  1  1  0  0  0  0
  2  8  1  0  0  0  0
  4  1  1  0  0  0  0
  6  2  1  0  0  0  0
  6  9  1  0  0  0  0
  6 10  1  0  0  0  0
  7  2  1  0  0  0  0
  9 13  1  0  0  0  0
  9 12  1  0  0  0  0
 11  6  1  0  0  0  0
 14  9  1  0  0  0  0
M  END
$$$$
