butane_opt
 OpenBabel08242015413D

 14 13  0  0  0  0  0  0  0  0999 V2000
   -3.9409    0.2402    0.0639 C   0  0  0  0  0  0  0  0  0  0  0  0
   -2.7229   -0.5970   -0.0118 C   0  0  0  0  0  0  0  0  0  0  0  0
   -4.8391   -0.3668   -0.0555 H   0  0  0  0  0  0  0  0  0  0  0  0
   -3.9802    0.8158   -0.8104 H   0  0  0  0  0  0  0  0  0  0  0  0
   -3.9747    0.9848    0.8981 H   0  0  0  0  0  0  0  0  0  0  0  0
   -1.3998    0.2325    0.0043 C   0  0  0  0  0  0  0  0  0  0  0  0
   -2.7367   -1.4131   -0.9639 H   0  0  0  0  0  0  0  0  0  0  0  0
   -2.7220   -1.1677    0.8443 H   0  0  0  0  0  0  0  0  0  0  0  0
   -0.1450   -0.7243    0.0634 C   0  0  0  0  0  0  0  0  0  0  0  0
   -1.4254    0.8847    0.8434 H   0  0  0  0  0  0  0  0  0  0  0  0
   -1.3781    0.8631   -0.9303 H   0  0  0  0  0  0  0  0  0  0  0  0
   -0.0027   -1.5655    1.0911 H   0  0  0  0  0  0  0  0  0  0  0  0
    0.7496   -0.1834   -0.2681 H   0  0  0  0  0  0  0  0  0  0  0  0
   -0.1935   -1.1360   -0.6186 H   0  0  0  0  0  0  0  0  0  0  0  0
  1  5  1  0  0  0  0
  2  6  1  0  0  0  0
  2  1  1  0  0  0  0
  2  8  1  0  0  0  0
  3  1  1  0  0  0  0
  4  1  1  0  0  0  0
  6  9  1  0  0  0  0
  6 10  1  0  0  0  0
  7  2  1  0  0  0  0
  9 12  1  0  0  0  0
 11  6  1  0  0  0  0
 13  9  1  0  0  0  0
 14  9  1  0  0  0  0
M  END
$$$$
