14
butane_opt
C  -3.948496   0.273011  -0.033792
C  -2.675387  -0.613823   0.120248
H  -4.882383  -0.286198  -0.140905
H  -3.843819   0.854852  -0.970246
H  -4.093938   0.914803   0.768760
C  -1.410396   0.152178   0.070927
H  -2.593028  -1.284342  -0.703674
H  -2.765910  -1.219754   1.020732
C  -0.169235  -0.669930  -0.037173
H  -1.294667   0.845065   0.918636
H  -1.444234   0.767382  -0.785839
H  -0.147850  -1.305807   0.871734
H   0.751538  -0.063963  -0.012489
H  -0.267828  -1.399429  -0.959707
