14
butane_opt
C  -3.937740   0.257677   0.045748
C  -2.698274  -0.604848   0.014232
H  -4.884669  -0.385364  -0.143402
H  -3.880955   0.595976  -0.614928
H  -4.025970   1.201548   1.100681
C  -1.419720   0.207275  -0.048105
H  -2.665679  -1.314964  -0.860117
H  -2.752588  -1.294340   0.963275
C  -0.164847  -0.701579   0.074638
H  -1.396330   0.817667   0.740373
H  -1.330996   0.863954  -1.009940
H  -0.095431  -1.430058   1.031239
H   0.758239  -0.133878  -0.033148
H  -0.097762  -1.298643  -0.723796
