butane_opt
 OpenBabel08242015413D

 14 13  0  0  0  0  0  0  0  0999 V2000
   -3.9441    0.2629   -0.0109 C   0  0  0  0  0  0  0  0  0  0  0  0
   -2.7376   -0.5947    0.0417 C   0  0  0  0  0  0  0  0  0  0  0  0
   -4.9221   -0.4020    0.0661 H   0  0  0  0  0  0  0  0  0  0  0  0
   -4.0219    0.8669   -0.8937 H   0  0  0  0  0  0  0  0  0  0  0  0
   -3.9107    0.8747    0.8197 H   0  0  0  0  0  0  0  0  0  0  0  0
   -1.3964    0.1979    0.0550 C   0  0  0  0  0  0  0  0  0  0  0  0
   -2.6766   -1.2937   -0.7947 H   0  0  0  0  0  0  0  0  0  0  0  0
   -2.7449   -1.2800    0.9320 H   0  0  0  0  0  0  0  0  0  0  0  0
   -0.1335   -0.7193    0.0171 C   0  0  0  0  0  0  0  0  0  0  0  0
   -1.3371    0.9803    0.9560 H   0  0  0  0  0  0  0  0  0  0  0  0
   -1.4104    0.8000   -0.8394 H   0  0  0  0  0  0  0  0  0  0  0  0
    0.0444   -1.4094    0.9636 H   0  0  0  0  0  0  0  0  0  0  0  0
    0.7436   -0.1346   -0.1828 H   0  0  0  0  0  0  0  0  0  0  0  0
   -0.2380   -1.2445   -0.8074 H   0  0  0  0  0  0  0  0  0  0  0  0
  1  2  1  0  0  0  0
  1  3  1  0  0  0  0
  1  5  1  0  0  0  0
  2  6  1  0  0  0  0
  2  8  1  0  0  0  0
  4  1  1  0  0  0  0
  6 10  1  0  0  0  0
  7  2  1  0  0  0  0
  9  6  1  0  0  0  0
  9 12  1  0  0  0  0
 11  6  1  0  0  0  0
 13  9  1  0  0  0  0
 14  9  1  0  0  0  0
M  END
$$$$
