butane_opt
 OpenBabel08242015413D

 14 13  0  0  0  0  0  0  0  0999 V2000
   -3.9201    0.2526    0.0568 C   0  0  0  0  0  0  0  0  0  0  0  0
   -2.6856   -0.5897   -0.0071 C   0  0  0  0  0  0  0  0  0  0  0  0
   -4.9870   -0.4540   -0.1251 H   0  0  0  0  0  0  0  0  0  0  0  0
   -3.9243    0.6865   -0.7380 H   0  0  0  0  0  0  0  0  0  0  0  0
   -3.9002    1.1253    1.0508 H   0  0  0  0  0  0  0  0  0  0  0  0
   -1.4283    0.1938   -0.0290 C   0  0  0  0  0  0  0  0  0  0  0  0
   -2.8180   -1.2415   -0.8586 H   0  0  0  0  0  0  0  0  0  0  0  0
   -2.6619   -1.2862    0.9289 H   0  0  0  0  0  0  0  0  0  0  0  0
   -0.1588   -0.7077    0.0741 C   0  0  0  0  0  0  0  0  0  0  0  0
   -1.4945    0.8507    0.7928 H   0  0  0  0  0  0  0  0  0  0  0  0
   -1.3803    0.8558   -1.0045 H   0  0  0  0  0  0  0  0  0  0  0  0
   -0.0863   -1.4372    1.0526 H   0  0  0  0  0  0  0  0  0  0  0  0
    0.7350   -0.1114   -0.0570 H   0  0  0  0  0  0  0  0  0  0  0  0
   -0.1793   -1.2628   -0.7181 H   0  0  0  0  0  0  0  0  0  0  0  0
  1  5  1  0  0  0  0
  2  1  1  0  0  0  0
  2  8  1  0  0  0  0
  3  1  1  0  0  0  0
  4  1  1  0  0  0  0
  6  2  1  0  0  0  0
  6  9  1  0  0  0  0
  6 10  1  0  0  0  0
  7  2  1  0  0  0  0
  9 12  1  0  0  0  0
 11  6  1  0  0  0  0
 13  9  1  0  0  0  0
 14  9  1  0  0  0  0
M  END
$$$$
