butane_opt
 OpenBabel08242015413D

 14 13  0  0  0  0  0  0  0  0999 V2000
   -3.9646    0.2606    0.0046 C   0  0  0  0  0  0  0  0  0  0  0  0
   -2.7049   -0.6267    0.0815 C   0  0  0  0  0  0  0  0  0  0  0  0
   -4.8423   -0.3287   -0.0377 H   0  0  0  0  0  0  0  0  0  0  0  0
   -3.9151    0.9738   -0.9441 H   0  0  0  0  0  0  0  0  0  0  0  0
   -3.9987    0.8148    0.7590 H   0  0  0  0  0  0  0  0  0  0  0  0
   -1.4167    0.2137    0.0176 C   0  0  0  0  0  0  0  0  0  0  0  0
   -2.6859   -1.2067   -0.7015 H   0  0  0  0  0  0  0  0  0  0  0  0
   -2.7115   -1.3368    0.9817 H   0  0  0  0  0  0  0  0  0  0  0  0
   -0.1387   -0.6922    0.0011 C   0  0  0  0  0  0  0  0  0  0  0  0
   -1.3451    0.9147    0.8959 H   0  0  0  0  0  0  0  0  0  0  0  0
   -1.3893    0.7458   -0.8069 H   0  0  0  0  0  0  0  0  0  0  0  0
   -0.1765   -1.2126    0.7969 H   0  0  0  0  0  0  0  0  0  0  0  0
    0.7672   -0.1475    0.2014 H   0  0  0  0  0  0  0  0  0  0  0  0
   -0.0334   -1.5508   -0.9907 H   0  0  0  0  0  0  0  0  0  0  0  0
  1  2  1  0  0  0  0
  1  5  1  0  0  0  0
  2  8  1  0  0  0  0
  3  1  1  0  0  0  0
  4  1  1  0  0  0  0
  6  2  1  0  0  0  0
  6 10  1  0  0  0  0
  7  2  1  0  0  0  0
  9  6  1  0  0  0  0
  9 13  1  0  0  0  0
  9 12  1  0  0  0  0
 11  6  1  0  0  0  0
 14  9  1  0  0  0  0
M  END
$$$$
