butane_opt
 OpenBabel08242015413D

 14 13  0  0  0  0  0  0  0  0999 V2000
   -3.9523    0.2559   -0.0222 C   0  0  0  0  0  0  0  0  0  0  0  0
   -2.7193   -0.6235    0.0626 C   0  0  0  0  0  0  0  0  0  0  0  0
   -4.8098   -0.2996    0.2730 H   0  0  0  0  0  0  0  0  0  0  0  0
   -4.0061    1.0475   -1.0959 H   0  0  0  0  0  0  0  0  0  0  0  0
   -3.9119    0.7455    0.7370 H   0  0  0  0  0  0  0  0  0  0  0  0
   -1.4117    0.2119    0.0682 C   0  0  0  0  0  0  0  0  0  0  0  0
   -2.7081   -1.3296   -0.7957 H   0  0  0  0  0  0  0  0  0  0  0  0
   -2.6710   -1.2397    0.8891 H   0  0  0  0  0  0  0  0  0  0  0  0
   -0.1341   -0.7033    0.0020 C   0  0  0  0  0  0  0  0  0  0  0  0
   -1.4169    0.8990    0.9434 H   0  0  0  0  0  0  0  0  0  0  0  0
   -1.4102    0.7978   -0.7687 H   0  0  0  0  0  0  0  0  0  0  0  0
   -0.0235   -1.2258    0.8137 H   0  0  0  0  0  0  0  0  0  0  0  0
    0.7289   -0.1649   -0.0180 H   0  0  0  0  0  0  0  0  0  0  0  0
   -0.1851   -1.3784   -0.8850 H   0  0  0  0  0  0  0  0  0  0  0  0
  1  2  1  0  0  0  0
  1  3  1  0  0  0  0
  1  5  1  0  0  0  0
  2  6  1  0  0  0  0
  2  8  1  0  0  0  0
  4  1  1  0  0  0  0
  6 10  1  0  0  0  0
  7  2  1  0  0  0  0
  9  6  1  0  0  0  0
  9 12  1  0  0  0  0
 11  6  1  0  0  0  0
 13  9  1  0  0  0  0
 14  9  1  0  0  0  0
M  END
$$$$
