butane_opt
 OpenBabel08242015413D

 14 13  0  0  0  0  0  0  0  0999 V2000
   -3.9422    0.2520   -0.0153 C   0  0  0  0  0  0  0  0  0  0  0  0
   -2.7092   -0.5834    0.0526 C   0  0  0  0  0  0  0  0  0  0  0  0
   -4.8770   -0.3529    0.2019 H   0  0  0  0  0  0  0  0  0  0  0  0
   -3.9862    0.9485   -0.9718 H   0  0  0  0  0  0  0  0  0  0  0  0
   -3.8884    0.7145    0.7558 H   0  0  0  0  0  0  0  0  0  0  0  0
   -1.4015    0.2050    0.0402 C   0  0  0  0  0  0  0  0  0  0  0  0
   -2.7622   -1.2256   -0.7486 H   0  0  0  0  0  0  0  0  0  0  0  0
   -2.8468   -1.2836    1.0337 H   0  0  0  0  0  0  0  0  0  0  0  0
   -0.1502   -0.7249    0.0144 C   0  0  0  0  0  0  0  0  0  0  0  0
   -1.4037    1.0063    0.9425 H   0  0  0  0  0  0  0  0  0  0  0  0
   -1.4284    0.7847   -0.8050 H   0  0  0  0  0  0  0  0  0  0  0  0
   -0.1111   -1.2116    0.7972 H   0  0  0  0  0  0  0  0  0  0  0  0
    0.8182   -0.1215    0.0242 H   0  0  0  0  0  0  0  0  0  0  0  0
   -0.0998   -1.5109   -0.9228 H   0  0  0  0  0  0  0  0  0  0  0  0
  1  2  1  0  0  0  0
  1  3  1  0  0  0  0
  1  5  1  0  0  0  0
  2  8  1  0  0  0  0
  4  1  1  0  0  0  0
  6  2  1  0  0  0  0
  6 10  1  0  0  0  0
  7  2  1  0  0  0  0
  9 13  1  0  0  0  0
  9  6  1  0  0  0  0
  9 12  1  0  0  0  0
 11  6  1  0  0  0  0
 14  9  1  0  0  0  0
M  END
$$$$
