14
butane_opt
C  -3.935253   0.251351  -0.034503
C  -2.690212  -0.590471   0.087212
H  -4.937039  -0.408838  -0.080939
H  -3.776800   0.841123  -0.949501
H  -4.006890   0.912927   0.770154
C  -1.424902   0.183265   0.090606
H  -2.621530  -1.185367  -0.656091
H  -2.810382  -1.237972   0.980193
C  -0.168532  -0.700129  -0.021801
H  -1.427368   0.923449   0.960752
H  -1.436787   0.779548  -0.797508
H   0.106759  -1.360843   0.873972
H   0.756219  -0.108009  -0.234723
H  -0.254623  -1.360686  -0.873658
