butane_opt
 OpenBabel08242015413D

 14 13  0  0  0  0  0  0  0  0999 V2000
   -3.9650    0.2801    0.0633 C   0  0  0  0  0  0  0  0  0  0  0  0
   -2.6835   -0.6383    0.0194 C   0  0  0  0  0  0  0  0  0  0  0  0
   -4.8899   -0.3278   -0.1378 H   0  0  0  0  0  0  0  0  0  0  0  0
   -3.9167    0.6933   -0.7208 H   0  0  0  0  0  0  0  0  0  0  0  0
   -4.0991    1.1722    1.0192 H   0  0  0  0  0  0  0  0  0  0  0  0
   -1.3924    0.1843   -0.0532 C   0  0  0  0  0  0  0  0  0  0  0  0
   -2.8150   -1.3967   -0.8860 H   0  0  0  0  0  0  0  0  0  0  0  0
   -2.6787   -1.1637    0.8596 H   0  0  0  0  0  0  0  0  0  0  0  0
   -0.1567   -0.6921    0.0804 C   0  0  0  0  0  0  0  0  0  0  0  0
   -1.4615    0.7720    0.7507 H   0  0  0  0  0  0  0  0  0  0  0  0
   -1.3257    0.8286   -0.9948 H   0  0  0  0  0  0  0  0  0  0  0  0
   -0.1616   -1.3746    1.0397 H   0  0  0  0  0  0  0  0  0  0  0  0
    0.8178   -0.0484   -0.0655 H   0  0  0  0  0  0  0  0  0  0  0  0
   -0.1279   -1.2286   -0.7196 H   0  0  0  0  0  0  0  0  0  0  0  0
  1  5  1  0  0  0  0
  2  1  1  0  0  0  0
  2  8  1  0  0  0  0
  3  1  1  0  0  0  0
  4  1  1  0  0  0  0
  6  2  1  0  0  0  0
  6  9  1  0  0  0  0
  6 10  1  0  0  0  0
  7  2  1  0  0  0  0
  9 12  1  0  0  0  0
 11  6  1  0  0  0  0
 13  9  1  0  0  0  0
 14  9  1  0  0  0  0
M  END
$$$$
