butane_opt
 OpenBabel08242015413D

 14 13  0  0  0  0  0  0  0  0999 V2000
   -3.9220    0.2439    0.0665 C   0  0  0  0  0  0  0  0  0  0  0  0
   -2.7017   -0.5972   -0.0244 C   0  0  0  0  0  0  0  0  0  0  0  0
   -4.8671   -0.3755   -0.0143 H   0  0  0  0  0  0  0  0  0  0  0  0
   -3.8841    0.7842   -0.7778 H   0  0  0  0  0  0  0  0  0  0  0  0
   -3.8599    1.0154    1.0273 H   0  0  0  0  0  0  0  0  0  0  0  0
   -1.4311    0.2079   -0.0144 C   0  0  0  0  0  0  0  0  0  0  0  0
   -2.7041   -1.3263   -0.9260 H   0  0  0  0  0  0  0  0  0  0  0  0
   -2.7169   -1.1215    0.7735 H   0  0  0  0  0  0  0  0  0  0  0  0
   -0.1742   -0.7061    0.0648 C   0  0  0  0  0  0  0  0  0  0  0  0
   -1.4025    0.8622    0.8462 H   0  0  0  0  0  0  0  0  0  0  0  0
   -1.3507    0.8093   -0.9257 H   0  0  0  0  0  0  0  0  0  0  0  0
   -0.0818   -1.6198    1.1758 H   0  0  0  0  0  0  0  0  0  0  0  0
    0.6986   -0.1703   -0.2359 H   0  0  0  0  0  0  0  0  0  0  0  0
   -0.1087   -1.1090   -0.5765 H   0  0  0  0  0  0  0  0  0  0  0  0
  1  5  1  0  0  0  0
  2  6  1  0  0  0  0
  2  1  1  0  0  0  0
  2  8  1  0  0  0  0
  3  1  1  0  0  0  0
  4  1  1  0  0  0  0
  6  9  1  0  0  0  0
  6 10  1  0  0  0  0
  7  2  1  0  0  0  0
  9 12  1  0  0  0  0
 11  6  1  0  0  0  0
 13  9  1  0  0  0  0
 14  9  1  0  0  0  0
M  END
$$$$
