butane_opt
 OpenBabel08242015413D

 14 13  0  0  0  0  0  0  0  0999 V2000
   -3.9538    0.2667    0.0020 C   0  0  0  0  0  0  0  0  0  0  0  0
   -2.7017   -0.6156    0.0539 C   0  0  0  0  0  0  0  0  0  0  0  0
   -4.8325   -0.3048    0.0431 H   0  0  0  0  0  0  0  0  0  0  0  0
   -3.9460    0.9186   -0.9101 H   0  0  0  0  0  0  0  0  0  0  0  0
   -4.0314    0.9028    0.8181 H   0  0  0  0  0  0  0  0  0  0  0  0
   -1.3981    0.1738    0.0420 C   0  0  0  0  0  0  0  0  0  0  0  0
   -2.6955   -1.3072   -0.8156 H   0  0  0  0  0  0  0  0  0  0  0  0
   -2.7457   -1.1888    0.8807 H   0  0  0  0  0  0  0  0  0  0  0  0
   -0.1595   -0.6962    0.0107 C   0  0  0  0  0  0  0  0  0  0  0  0
   -1.3253    0.8695    0.9203 H   0  0  0  0  0  0  0  0  0  0  0  0
   -1.4029    0.7947   -0.8413 H   0  0  0  0  0  0  0  0  0  0  0  0
   -0.0915   -1.3453    0.9383 H   0  0  0  0  0  0  0  0  0  0  0  0
    0.7948   -0.0726   -0.1081 H   0  0  0  0  0  0  0  0  0  0  0  0
   -0.1942   -1.2747   -0.7786 H   0  0  0  0  0  0  0  0  0  0  0  0
  1  3  1  0  0  0  0
  1  2  1  0  0  0  0
  1  5  1  0  0  0  0
  2  8  1  0  0  0  0
  4  1  1  0  0  0  0
  6  2  1  0  0  0  0
  6 10  1  0  0  0  0
  7  2  1  0  0  0  0
  9  6  1  0  0  0  0
  9 12  1  0  0  0  0
 11  6  1  0  0  0  0
 13  9  1  0  0  0  0
 14  9  1  0  0  0  0
M  END
$$$$
