14
butane_opt
C  -3.964637   0.260567   0.004620
C  -2.704878  -0.626732   0.081456
H  -4.842337  -0.328724  -0.037717
H  -3.915071   0.973776  -0.944086
H  -3.998670   0.814753   0.758955
C  -1.416681   0.213660   0.017649
H  -2.685898  -1.206706  -0.701465
H  -2.711501  -1.336811   0.981731
C  -0.138747  -0.692221   0.001064
H  -1.345102   0.914712   0.895858
H  -1.389319   0.745805  -0.806868
H  -0.176500  -1.212597   0.796910
H   0.767215  -0.147537   0.201435
H  -0.033443  -1.550834  -0.990724
