butane_opt
 OpenBabel08242015413D

 14 13  0  0  0  0  0  0  0  0999 V2000
   -3.9353    0.2514   -0.0345 C   0  0  0  0  0  0  0  0  0  0  0  0
   -2.6902   -0.5905    0.0872 C   0  0  0  0  0  0  0  0  0  0  0  0
   -4.9370   -0.4088   -0.0809 H   0  0  0  0  0  0  0  0  0  0  0  0
   -3.7768    0.8411   -0.9495 H   0  0  0  0  0  0  0  0  0  0  0  0
   -4.0069    0.9129    0.7702 H   0  0  0  0  0  0  0  0  0  0  0  0
   -1.4249    0.1833    0.0906 C   0  0  0  0  0  0  0  0  0  0  0  0
   -2.6215   -1.1854   -0.6561 H   0  0  0  0  0  0  0  0  0  0  0  0
   -2.8104   -1.2380    0.9802 H   0  0  0  0  0  0  0  0  0  0  0  0
   -0.1685   -0.7001   -0.0218 C   0  0  0  0  0  0  0  0  0  0  0  0
   -1.4274    0.9234    0.9608 H   0  0  0  0  0  0  0  0  0  0  0  0
   -1.4368    0.7795   -0.7975 H   0  0  0  0  0  0  0  0  0  0  0  0
    0.1068   -1.3608    0.8740 H   0  0  0  0  0  0  0  0  0  0  0  0
    0.7562   -0.1080   -0.2347 H   0  0  0  0  0  0  0  0  0  0  0  0
   -0.2546   -1.3607   -0.8737 H   0  0  0  0  0  0  0  0  0  0  0  0
  1  2  1  0  0  0  0
  1  5  1  0  0  0  0
  2  6  1  0  0  0  0
  2  8  1  0  0  0  0
  3  1  1  0  0  0  0
  4  1  1  0  0  0  0
  6 10  1  0  0  0  0
  7  2  1  0  0  0  0
  9  6  1  0  0  0  0
  9 12  1  0  0  0  0
 11  6  1  0  0  0  0
 13  9  1  0  0  0  0
 14  9  1  0  0  0  0
M  END
$$$$
