14
butane_opt
C  -3.959431   0.283979   0.068867
C  -2.666018  -0.630749  -0.008241
H  -4.907755  -0.339737   0.177166
H  -4.074753   0.881282  -0.803906
H  -3.861536   0.917422   0.923577
C  -1.400044   0.167067  -0.052798
H  -2.737528  -1.339890  -0.936388
H  -2.642417  -1.192344   0.840033
C  -0.181202  -0.683862   0.093988
H  -1.523756   0.733151   0.696235
H  -1.274020   0.844873  -0.987705
H  -0.195411  -1.202910   0.916074
H   0.779389  -0.017679   0.212359
H  -0.112140  -1.391861  -0.829925
