butane_opt
 OpenBabel08242015413D

 14 13  0  0  0  0  0  0  0  0999 V2000
   -3.9447    0.2721    0.0553 C   0  0  0  0  0  0  0  0  0  0  0  0
   -2.6795   -0.6323   -0.0078 C   0  0  0  0  0  0  0  0  0  0  0  0
   -4.8376   -0.2953   -0.0636 H   0  0  0  0  0  0  0  0  0  0  0  0
   -3.8923    0.8271   -0.8263 H   0  0  0  0  0  0  0  0  0  0  0  0
   -3.9768    1.0482    1.0006 H   0  0  0  0  0  0  0  0  0  0  0  0
   -1.4078    0.1696   -0.0072 C   0  0  0  0  0  0  0  0  0  0  0  0
   -2.7349   -1.3315   -0.8906 H   0  0  0  0  0  0  0  0  0  0  0  0
   -2.6281   -1.2007    0.8118 H   0  0  0  0  0  0  0  0  0  0  0  0
   -0.1897   -0.6843    0.0663 C   0  0  0  0  0  0  0  0  0  0  0  0
   -1.3414    0.8776    0.8679 H   0  0  0  0  0  0  0  0  0  0  0  0
   -1.3555    0.8631   -0.9213 H   0  0  0  0  0  0  0  0  0  0  0  0
   -0.0700   -1.5605    1.0654 H   0  0  0  0  0  0  0  0  0  0  0  0
    0.7918   -0.0413   -0.1784 H   0  0  0  0  0  0  0  0  0  0  0  0
   -0.3251   -1.1484   -0.6651 H   0  0  0  0  0  0  0  0  0  0  0  0
  1  5  1  0  0  0  0
  2  6  1  0  0  0  0
  2  1  1  0  0  0  0
  2  8  1  0  0  0  0
  3  1  1  0  0  0  0
  4  1  1  0  0  0  0
  6  9  1  0  0  0  0
  6 10  1  0  0  0  0
  7  2  1  0  0  0  0
  9 12  1  0  0  0  0
 11  6  1  0  0  0  0
 13  9  1  0  0  0  0
 14  9  1  0  0  0  0
M  END
$$$$
