14
butane_opt
C  -3.910030   0.255777  -0.012651
C  -2.715010  -0.592725   0.059718
H  -4.932317  -0.405503   0.224547
H  -3.932245   1.143154  -1.095210
H  -3.903642   0.614814   0.617119
C  -1.411744   0.191045   0.071820
H  -2.761872  -1.234593  -0.768366
H  -2.728330  -1.215421   0.956121
C  -0.149485  -0.714976  -0.007254
H  -1.410386   0.919497   0.986404
H  -1.520062   0.797204  -0.734964
H  -0.154219  -1.140999   0.759286
H   0.726666  -0.126573   0.006585
H  -0.156832  -1.506253  -0.905248
