14
butane_opt
C  -3.962145   0.277880   0.045422
C  -2.721529  -0.625323   0.002984
H  -4.823857  -0.271982   0.109849
H  -4.130094   0.920785  -0.855561
H  -3.884716   0.939539   0.908069
C  -1.390956   0.159958  -0.024011
H  -2.661061  -1.269859  -0.810635
H  -2.731000  -1.315142   0.960985
C  -0.152217  -0.679685   0.054089
H  -1.374818   0.847720   0.813599
H  -1.349694   0.830801  -0.922218
H  -0.218944  -1.244559   0.937752
H   0.879530  -0.026359   0.197993
H  -0.025134  -1.462265  -0.854762
