butane_opt
 OpenBabel08242015413D

 14 13  0  0  0  0  0  0  0  0999 V2000
   -3.9607    0.2499    0.0757 C   0  0  0  0  0  0  0  0  0  0  0  0
   -2.7068   -0.5975   -0.0132 C   0  0  0  0  0  0  0  0  0  0  0  0
   -4.9212   -0.3585    0.1124 H   0  0  0  0  0  0  0  0  0  0  0  0
   -3.9665    0.8287   -0.8171 H   0  0  0  0  0  0  0  0  0  0  0  0
   -3.9044    0.9423    0.9773 H   0  0  0  0  0  0  0  0  0  0  0  0
   -1.4024    0.2119   -0.0494 C   0  0  0  0  0  0  0  0  0  0  0  0
   -2.7769   -1.3171   -0.9188 H   0  0  0  0  0  0  0  0  0  0  0  0
   -2.6794   -1.2207    0.8687 H   0  0  0  0  0  0  0  0  0  0  0  0
   -0.1516   -0.7173    0.0899 C   0  0  0  0  0  0  0  0  0  0  0  0
   -1.4693    0.7933    0.7015 H   0  0  0  0  0  0  0  0  0  0  0  0
   -1.2446    0.9611   -1.0177 H   0  0  0  0  0  0  0  0  0  0  0  0
   -0.1923   -1.2747    0.9582 H   0  0  0  0  0  0  0  0  0  0  0  0
    0.7798   -0.1045    0.1606 H   0  0  0  0  0  0  0  0  0  0  0  0
    0.0156   -1.4968   -0.8346 H   0  0  0  0  0  0  0  0  0  0  0  0
  1  3  1  0  0  0  0
  1  5  1  0  0  0  0
  2  1  1  0  0  0  0
  2  8  1  0  0  0  0
  4  1  1  0  0  0  0
  6  2  1  0  0  0  0
  6  9  1  0  0  0  0
  6 10  1  0  0  0  0
  7  2  1  0  0  0  0
  9 13  1  0  0  0  0
  9 12  1  0  0  0  0
 11  6  1  0  0  0  0
 14  9  1  0  0  0  0
M  END
$$$$
