butane_opt
 OpenBabel08242015413D

 14 13  0  0  0  0  0  0  0  0999 V2000
   -3.9157    0.2821   -0.0233 C   0  0  0  0  0  0  0  0  0  0  0  0
   -2.6986   -0.6277    0.0580 C   0  0  0  0  0  0  0  0  0  0  0  0
   -4.8471   -0.2940    0.0573 H   0  0  0  0  0  0  0  0  0  0  0  0
   -4.0494    0.9138   -0.9279 H   0  0  0  0  0  0  0  0  0  0  0  0
   -3.9633    1.0247    0.8398 H   0  0  0  0  0  0  0  0  0  0  0  0
   -1.4130    0.1499    0.0660 C   0  0  0  0  0  0  0  0  0  0  0  0
   -2.6457   -1.3291   -0.8510 H   0  0  0  0  0  0  0  0  0  0  0  0
   -2.7633   -1.2633    0.9892 H   0  0  0  0  0  0  0  0  0  0  0  0
   -0.1771   -0.6752    0.0065 C   0  0  0  0  0  0  0  0  0  0  0  0
   -1.3359    0.8514    0.9477 H   0  0  0  0  0  0  0  0  0  0  0  0
   -1.3563    0.7231   -0.7806 H   0  0  0  0  0  0  0  0  0  0  0  0
   -0.1196   -1.3984    0.9819 H   0  0  0  0  0  0  0  0  0  0  0  0
    0.8150   -0.0226   -0.2812 H   0  0  0  0  0  0  0  0  0  0  0  0
   -0.3045   -1.2153   -0.8121 H   0  0  0  0  0  0  0  0  0  0  0  0
  1  3  1  0  0  0  0
  1  2  1  0  0  0  0
  1  5  1  0  0  0  0
  2  6  1  0  0  0  0
  2  8  1  0  0  0  0
  4  1  1  0  0  0  0
  6 10  1  0  0  0  0
  7  2  1  0  0  0  0
  9  6  1  0  0  0  0
  9 12  1  0  0  0  0
 11  6  1  0  0  0  0
 13  9  1  0  0  0  0
 14  9  1  0  0  0  0
M  END
$$$$
