14
butane_opt
C  -3.957053   0.269201  -0.007087
C  -2.704798  -0.614214   0.068904
H  -4.904471  -0.382412   0.068664
H  -3.945574   0.928874  -0.938603
H  -4.002688   0.862288   0.821795
C  -1.398547   0.191109   0.028340
H  -2.696844  -1.265940  -0.747457
H  -2.725178  -1.292829   0.985775
C  -0.148082  -0.694756   0.003214
H  -1.338274   0.876901   0.884670
H  -1.474949   0.781015  -0.830473
H  -0.150486  -1.219990   0.860185
H   0.760353  -0.113851   0.134638
H  -0.044897  -1.463398  -0.928276
