butane_opt
 OpenBabel08242015413D

 14 13  0  0  0  0  0  0  0  0999 V2000
   -3.9100    0.2558   -0.0127 C   0  0  0  0  0  0  0  0  0  0  0  0
   -2.7150   -0.5927    0.0597 C   0  0  0  0  0  0  0  0  0  0  0  0
   -4.9323   -0.4055    0.2245 H   0  0  0  0  0  0  0  0  0  0  0  0
   -3.9322    1.1432   -1.0952 H   0  0  0  0  0  0  0  0  0  0  0  0
   -3.9036    0.6148    0.6171 H   0  0  0  0  0  0  0  0  0  0  0  0
   -1.4117    0.1910    0.0718 C   0  0  0  0  0  0  0  0  0  0  0  0
   -2.7619   -1.2346   -0.7684 H   0  0  0  0  0  0  0  0  0  0  0  0
   -2.7283   -1.2154    0.9561 H   0  0  0  0  0  0  0  0  0  0  0  0
   -0.1495   -0.7150   -0.0073 C   0  0  0  0  0  0  0  0  0  0  0  0
   -1.4104    0.9195    0.9864 H   0  0  0  0  0  0  0  0  0  0  0  0
   -1.5201    0.7972   -0.7350 H   0  0  0  0  0  0  0  0  0  0  0  0
   -0.1542   -1.1410    0.7593 H   0  0  0  0  0  0  0  0  0  0  0  0
    0.7267   -0.1266    0.0066 H   0  0  0  0  0  0  0  0  0  0  0  0
   -0.1568   -1.5063   -0.9052 H   0  0  0  0  0  0  0  0  0  0  0  0
  1  2  1  0  0  0  0
  1  3  1  0  0  0  0
  1  5  1  0  0  0  0
  2  6  1  0  0  0  0
  2  8  1  0  0  0  0
  4  1  1  0  0  0  0
  6 10  1  0  0  0  0
  7  2  1  0  0  0  0
  9 13  1  0  0  0  0
  9  6  1  0  0  0  0
  9 12  1  0  0  0  0
 11  6  1  0  0  0  0
 14  9  1  0  0  0  0
M  END
$$$$
