butane_opt
 OpenBabel08242015413D

 14 13  0  0  0  0  0  0  0  0999 V2000
   -3.9347    0.2538    0.0321 C   0  0  0  0  0  0  0  0  0  0  0  0
   -2.6963   -0.5981    0.0121 C   0  0  0  0  0  0  0  0  0  0  0  0
   -4.8564   -0.3541    0.0677 H   0  0  0  0  0  0  0  0  0  0  0  0
   -3.9515    0.8017   -0.8152 H   0  0  0  0  0  0  0  0  0  0  0  0
   -3.9271    0.9593    0.9240 H   0  0  0  0  0  0  0  0  0  0  0  0
   -1.4224    0.1900    0.0037 C   0  0  0  0  0  0  0  0  0  0  0  0
   -2.7026   -1.3226   -0.8759 H   0  0  0  0  0  0  0  0  0  0  0  0
   -2.7032   -1.2142    0.8927 H   0  0  0  0  0  0  0  0  0  0  0  0
   -0.1621   -0.6956    0.0453 C   0  0  0  0  0  0  0  0  0  0  0  0
   -1.3989    0.8918    0.8319 H   0  0  0  0  0  0  0  0  0  0  0  0
   -1.3621    0.8189   -0.8949 H   0  0  0  0  0  0  0  0  0  0  0  0
   -0.1333   -1.4543    1.0389 H   0  0  0  0  0  0  0  0  0  0  0  0
    0.7303   -0.1499   -0.0761 H   0  0  0  0  0  0  0  0  0  0  0  0
   -0.1275   -1.2543   -0.7505 H   0  0  0  0  0  0  0  0  0  0  0  0
  1  3  1  0  0  0  0
  1  5  1  0  0  0  0
  2  1  1  0  0  0  0
  2  8  1  0  0  0  0
  4  1  1  0  0  0  0
  6  2  1  0  0  0  0
  6  9  1  0  0  0  0
  6 10  1  0  0  0  0
  7  2  1  0  0  0  0
  9 12  1  0  0  0  0
 11  6  1  0  0  0  0
 13  9  1  0  0  0  0
 14  9  1  0  0  0  0
M  END
$$$$
