butane_opt
 OpenBabel08242015413D

 14 13  0  0  0  0  0  0  0  0999 V2000
   -3.9189    0.2478   -0.0233 C   0  0  0  0  0  0  0  0  0  0  0  0
   -2.7117   -0.5983    0.1009 C   0  0  0  0  0  0  0  0  0  0  0  0
   -4.7748   -0.3247   -0.0756 H   0  0  0  0  0  0  0  0  0  0  0  0
   -3.8274    0.8677   -0.9608 H   0  0  0  0  0  0  0  0  0  0  0  0
   -4.0086    0.9958    0.8893 H   0  0  0  0  0  0  0  0  0  0  0  0
   -1.4113    0.1839    0.0384 C   0  0  0  0  0  0  0  0  0  0  0  0
   -2.6908   -1.2777   -0.7766 H   0  0  0  0  0  0  0  0  0  0  0  0
   -2.7287   -1.1975    0.9872 H   0  0  0  0  0  0  0  0  0  0  0  0
   -0.1731   -0.7071   -0.0164 C   0  0  0  0  0  0  0  0  0  0  0  0
   -1.3754    0.8833    0.9306 H   0  0  0  0  0  0  0  0  0  0  0  0
   -1.4579    0.7769   -0.7954 H   0  0  0  0  0  0  0  0  0  0  0  0
   -0.1178   -1.2888    0.9091 H   0  0  0  0  0  0  0  0  0  0  0  0
    0.7478   -0.1167   -0.0130 H   0  0  0  0  0  0  0  0  0  0  0  0
   -0.2053   -1.3025   -0.8401 H   0  0  0  0  0  0  0  0  0  0  0  0
  1  2  1  0  0  0  0
  1  5  1  0  0  0  0
  2  8  1  0  0  0  0
  3  1  1  0  0  0  0
  4  1  1  0  0  0  0
  6  2  1  0  0  0  0
  6 10  1  0  0  0  0
  7  2  1  0  0  0  0
  9 13  1  0  0  0  0
  9  6  1  0  0  0  0
  9 12  1  0  0  0  0
 11  6  1  0  0  0  0
 14  9  1  0  0  0  0
M  END
$$$$
