14
butane_opt
C  -3.918879   0.247756  -0.023261
C  -2.711654  -0.598253   0.100870
H  -4.774783  -0.324737  -0.075559
H  -3.827428   0.867741  -0.960758
H  -4.008560   0.995805   0.889298
C  -1.411272   0.183928   0.038442
H  -2.690803  -1.277688  -0.776604
H  -2.728671  -1.197531   0.987185
C  -0.173117  -0.707147  -0.016403
H  -1.375397   0.883284   0.930615
H  -1.457912   0.776865  -0.795359
H  -0.117789  -1.288785   0.909143
H   0.747806  -0.116713  -0.012992
H  -0.205254  -1.302471  -0.840102
