14
butane_opt
C  -3.943831   0.275267   0.047344
C  -2.680602  -0.628841   0.010734
H  -4.861237  -0.321814  -0.026060
H  -3.997792   0.838455  -0.816388
H  -3.943371   1.036557   0.957187
C  -1.407834   0.167894  -0.022307
H  -2.735931  -1.350294  -0.871018
H  -2.686686  -1.257436   0.862577
C  -0.176120  -0.678369   0.060312
H  -1.366766   0.866513   0.849715
H  -1.407827   0.789499  -0.902250
H  -0.132222  -1.408845   1.026638
H   0.726111  -0.058147  -0.060987
H  -0.127753  -1.229477  -0.715277
