butane_opt
 OpenBabel08242015413D

 14 13  0  0  0  0  0  0  0  0999 V2000
   -3.9288    0.2491   -0.0146 C   0  0  0  0  0  0  0  0  0  0  0  0
   -2.7111   -0.6009    0.0827 C   0  0  0  0  0  0  0  0  0  0  0  0
   -4.8274   -0.3251    0.0519 H   0  0  0  0  0  0  0  0  0  0  0  0
   -3.8520    0.9683   -1.0048 H   0  0  0  0  0  0  0  0  0  0  0  0
   -3.9222    0.7700    0.7622 H   0  0  0  0  0  0  0  0  0  0  0  0
   -1.4070    0.2034    0.0376 C   0  0  0  0  0  0  0  0  0  0  0  0
   -2.6818   -1.1653   -0.6538 H   0  0  0  0  0  0  0  0  0  0  0  0
   -2.7027   -1.2973    1.0520 H   0  0  0  0  0  0  0  0  0  0  0  0
   -0.1741   -0.7170   -0.0010 C   0  0  0  0  0  0  0  0  0  0  0  0
   -1.3849    0.8928    0.8852 H   0  0  0  0  0  0  0  0  0  0  0  0
   -1.4092    0.8589   -0.8322 H   0  0  0  0  0  0  0  0  0  0  0  0
   -0.1981   -1.0358    0.7018 H   0  0  0  0  0  0  0  0  0  0  0  0
    0.6872   -0.1123    0.1959 H   0  0  0  0  0  0  0  0  0  0  0  0
   -0.0747   -1.6571   -1.0246 H   0  0  0  0  0  0  0  0  0  0  0  0
  1  3  1  0  0  0  0
  1  2  1  0  0  0  0
  1  5  1  0  0  0  0
  2  8  1  0  0  0  0
  4  1  1  0  0  0  0
  6  2  1  0  0  0  0
  6 10  1  0  0  0  0
  7  2  1  0  0  0  0
  9  6  1  0  0  0  0
  9 13  1  0  0  0  0
  9 12  1  0  0  0  0
 11  6  1  0  0  0  0
 14  9  1  0  0  0  0
M  END
$$$$
