butane_opt
 OpenBabel08242015413D

 14 13  0  0  0  0  0  0  0  0999 V2000
   -3.9372    0.2420   -0.0092 C   0  0  0  0  0  0  0  0  0  0  0  0
   -2.7117   -0.5777    0.0946 C   0  0  0  0  0  0  0  0  0  0  0  0
   -4.8759   -0.3507   -0.0396 H   0  0  0  0  0  0  0  0  0  0  0  0
   -3.9322    0.9708   -0.9599 H   0  0  0  0  0  0  0  0  0  0  0  0
   -4.0689    0.7776    0.7645 H   0  0  0  0  0  0  0  0  0  0  0  0
   -1.4105    0.1962    0.0303 C   0  0  0  0  0  0  0  0  0  0  0  0
   -2.7275   -1.2896   -0.7466 H   0  0  0  0  0  0  0  0  0  0  0  0
   -2.7016   -1.3163    1.0507 H   0  0  0  0  0  0  0  0  0  0  0  0
   -0.1424   -0.7115   -0.0053 C   0  0  0  0  0  0  0  0  0  0  0  0
   -1.3479    0.8622    0.8956 H   0  0  0  0  0  0  0  0  0  0  0  0
   -1.5054    0.8679   -0.8487 H   0  0  0  0  0  0  0  0  0  0  0  0
   -0.1763   -1.0872    0.7585 H   0  0  0  0  0  0  0  0  0  0  0  0
    0.7788   -0.1314    0.2218 H   0  0  0  0  0  0  0  0  0  0  0  0
   -0.0318   -1.5722   -1.0180 H   0  0  0  0  0  0  0  0  0  0  0  0
  1  2  1  0  0  0  0
  1  5  1  0  0  0  0
  2  8  1  0  0  0  0
  3  1  1  0  0  0  0
  4  1  1  0  0  0  0
  6  2  1  0  0  0  0
  6 10  1  0  0  0  0
  7  2  1  0  0  0  0
  9  6  1  0  0  0  0
  9 13  1  0  0  0  0
  9 12  1  0  0  0  0
 11  6  1  0  0  0  0
 14  9  1  0  0  0  0
M  END
$$$$
