butane_opt
 OpenBabel08242015413D

 14 13  0  0  0  0  0  0  0  0999 V2000
   -3.9399    0.2455    0.0646 C   0  0  0  0  0  0  0  0  0  0  0  0
   -2.7111   -0.5965    0.0111 C   0  0  0  0  0  0  0  0  0  0  0  0
   -4.9169   -0.3891    0.0209 H   0  0  0  0  0  0  0  0  0  0  0  0
   -3.9719    0.7796   -0.7529 H   0  0  0  0  0  0  0  0  0  0  0  0
   -3.9184    0.9901    0.9736 H   0  0  0  0  0  0  0  0  0  0  0  0
   -1.4261    0.2126   -0.0705 C   0  0  0  0  0  0  0  0  0  0  0  0
   -2.7749   -1.3688   -0.8764 H   0  0  0  0  0  0  0  0  0  0  0  0
   -2.6490   -1.2046    0.9143 H   0  0  0  0  0  0  0  0  0  0  0  0
   -0.1357   -0.7157    0.0764 C   0  0  0  0  0  0  0  0  0  0  0  0
   -1.3487    0.8552    0.7423 H   0  0  0  0  0  0  0  0  0  0  0  0
   -1.4130    0.9353   -1.0075 H   0  0  0  0  0  0  0  0  0  0  0  0
   -0.2059   -1.2583    0.9187 H   0  0  0  0  0  0  0  0  0  0  0  0
    0.7173   -0.1760    0.2940 H   0  0  0  0  0  0  0  0  0  0  0  0
    0.0320   -1.4079   -0.7583 H   0  0  0  0  0  0  0  0  0  0  0  0
  1  5  1  0  0  0  0
  2  1  1  0  0  0  0
  2  8  1  0  0  0  0
  3  1  1  0  0  0  0
  4  1  1  0  0  0  0
  6  2  1  0  0  0  0
  6  9  1  0  0  0  0
  6 10  1  0  0  0  0
  7  2  1  0  0  0  0
  9 13  1  0  0  0  0
  9 12  1  0  0  0  0
 11  6  1  0  0  0  0
 14  9  1  0  0  0  0
M  END
$$$$
