14
butane_opt
C  -3.937158   0.241965  -0.009179
C  -2.711699  -0.577675   0.094591
H  -4.875929  -0.350656  -0.039602
H  -3.932241   0.970791  -0.959867
H  -4.068915   0.777649   0.764498
C  -1.410507   0.196227   0.030271
H  -2.727525  -1.289627  -0.746601
H  -2.701581  -1.316284   1.050675
C  -0.142414  -0.711483  -0.005314
H  -1.347893   0.862163   0.895632
H  -1.505361   0.867854  -0.848731
H  -0.176301  -1.087159   0.758460
H   0.778815  -0.131412   0.221823
H  -0.031817  -1.572202  -1.018012
