butane_opt
 OpenBabel08242015413D

 14 13  0  0  0  0  0  0  0  0999 V2000
   -3.9509    0.2844   -0.0269 C   0  0  0  0  0  0  0  0  0  0  0  0
   -2.6894   -0.6365    0.1102 C   0  0  0  0  0  0  0  0  0  0  0  0
   -4.8106   -0.2813   -0.2035 H   0  0  0  0  0  0  0  0  0  0  0  0
   -3.8336    0.8968   -0.9263 H   0  0  0  0  0  0  0  0  0  0  0  0
   -4.0427    1.0105    0.8375 H   0  0  0  0  0  0  0  0  0  0  0  0
   -1.3977    0.1656    0.0602 C   0  0  0  0  0  0  0  0  0  0  0  0
   -2.7119   -1.2931   -0.7065 H   0  0  0  0  0  0  0  0  0  0  0  0
   -2.8065   -1.2937    1.0202 H   0  0  0  0  0  0  0  0  0  0  0  0
   -0.1670   -0.6839   -0.0202 C   0  0  0  0  0  0  0  0  0  0  0  0
   -1.3958    0.7708    0.8680 H   0  0  0  0  0  0  0  0  0  0  0  0
   -1.3929    0.8000   -0.7934 H   0  0  0  0  0  0  0  0  0  0  0  0
   -0.1204   -1.2105    0.8393 H   0  0  0  0  0  0  0  0  0  0  0  0
    0.7972   -0.0081   -0.0546 H   0  0  0  0  0  0  0  0  0  0  0  0
   -0.2659   -1.4029   -0.9316 H   0  0  0  0  0  0  0  0  0  0  0  0
  1  2  1  0  0  0  0
  1  5  1  0  0  0  0
  2  8  1  0  0  0  0
  3  1  1  0  0  0  0
  4  1  1  0  0  0  0
  6  2  1  0  0  0  0
  6 10  1  0  0  0  0
  7  2  1  0  0  0  0
  9  6  1  0  0  0  0
  9 12  1  0  0  0  0
 11  6  1  0  0  0  0
 13  9  1  0  0  0  0
 14  9  1  0  0  0  0
M  END
$$$$
