butane_opt
 OpenBabel08242015413D

 14 13  0  0  0  0  0  0  0  0999 V2000
   -3.9373    0.2404   -0.0456 C   0  0  0  0  0  0  0  0  0  0  0  0
   -2.6971   -0.5958    0.1170 C   0  0  0  0  0  0  0  0  0  0  0  0
   -4.8334   -0.3992   -0.1417 H   0  0  0  0  0  0  0  0  0  0  0  0
   -3.8363    0.8313   -0.9305 H   0  0  0  0  0  0  0  0  0  0  0  0
   -4.0437    0.9691    0.8464 H   0  0  0  0  0  0  0  0  0  0  0  0
   -1.4175    0.2008    0.0612 C   0  0  0  0  0  0  0  0  0  0  0  0
   -2.6609   -1.1436   -0.6573 H   0  0  0  0  0  0  0  0  0  0  0  0
   -2.6699   -1.2774    1.0713 H   0  0  0  0  0  0  0  0  0  0  0  0
   -0.1747   -0.7073   -0.0377 C   0  0  0  0  0  0  0  0  0  0  0  0
   -1.3038    0.9424    0.9632 H   0  0  0  0  0  0  0  0  0  0  0  0
   -1.4926    0.7715   -0.8003 H   0  0  0  0  0  0  0  0  0  0  0  0
   -0.1208   -1.2588    0.8420 H   0  0  0  0  0  0  0  0  0  0  0  0
    0.7216   -0.1262   -0.0013 H   0  0  0  0  0  0  0  0  0  0  0  0
   -0.0542   -1.4505   -0.8978 H   0  0  0  0  0  0  0  0  0  0  0  0
  1  2  1  0  0  0  0
  1  5  1  0  0  0  0
  2  8  1  0  0  0  0
  3  1  1  0  0  0  0
  4  1  1  0  0  0  0
  6  2  1  0  0  0  0
  6 10  1  0  0  0  0
  7  2  1  0  0  0  0
  9 13  1  0  0  0  0
  9  6  1  0  0  0  0
  9 12  1  0  0  0  0
 11  6  1  0  0  0  0
 14  9  1  0  0  0  0
M  END
$$$$
