14
butane_opt
C  -3.917092   0.246630   0.042342
C  -2.706587  -0.589607   0.016400
H  -4.830941  -0.319743  -0.112391
H  -3.881801   0.668288  -0.686051
H  -3.899893   1.114314   1.063724
C  -1.419705   0.208805  -0.035880
H  -2.731319  -1.303451  -0.817765
H  -2.753154  -1.292966   0.938143
C  -0.166525  -0.719540   0.057180
H  -1.453176   0.817662   0.789456
H  -1.349236   0.899494  -0.955123
H  -0.273251  -1.406944   1.002952
H   0.760778  -0.093258   0.017142
H  -0.089805  -1.309099  -0.743676
