butane_opt
 OpenBabel08242015413D

 14 13  0  0  0  0  0  0  0  0999 V2000
   -3.9217    0.2593   -0.0191 C   0  0  0  0  0  0  0  0  0  0  0  0
   -2.7001   -0.6024    0.0812 C   0  0  0  0  0  0  0  0  0  0  0  0
   -4.8521   -0.3372   -0.1689 H   0  0  0  0  0  0  0  0  0  0  0  0
   -3.8313    0.6564   -0.7934 H   0  0  0  0  0  0  0  0  0  0  0  0
   -3.9942    1.0620    0.9325 H   0  0  0  0  0  0  0  0  0  0  0  0
   -1.4224    0.2008    0.0242 C   0  0  0  0  0  0  0  0  0  0  0  0
   -2.6989   -1.2108   -0.6631 H   0  0  0  0  0  0  0  0  0  0  0  0
   -2.7628   -1.3213    1.0421 H   0  0  0  0  0  0  0  0  0  0  0  0
   -0.1801   -0.6970    0.0130 C   0  0  0  0  0  0  0  0  0  0  0  0
   -1.4151    0.8943    0.8774 H   0  0  0  0  0  0  0  0  0  0  0  0
   -1.3283    0.7662   -0.8524 H   0  0  0  0  0  0  0  0  0  0  0  0
   -0.0611   -1.3585    0.8990 H   0  0  0  0  0  0  0  0  0  0  0  0
    0.7321   -0.1580   -0.1129 H   0  0  0  0  0  0  0  0  0  0  0  0
   -0.1317   -1.3928   -0.9049 H   0  0  0  0  0  0  0  0  0  0  0  0
  1  2  1  0  0  0  0
  1  5  1  0  0  0  0
  2  8  1  0  0  0  0
  3  1  1  0  0  0  0
  4  1  1  0  0  0  0
  6  2  1  0  0  0  0
  6 10  1  0  0  0  0
  7  2  1  0  0  0  0
  9  6  1  0  0  0  0
  9 12  1  0  0  0  0
 11  6  1  0  0  0  0
 13  9  1  0  0  0  0
 14  9  1  0  0  0  0
M  END
$$$$
