14
butane_opt
C  -3.921688   0.259300  -0.019094
C  -2.700126  -0.602383   0.081172
H  -4.852134  -0.337159  -0.168940
H  -3.831304   0.656400  -0.793432
H  -3.994187   1.061963   0.932474
C  -1.422386   0.200789   0.024216
H  -2.698911  -1.210797  -0.663081
H  -2.762831  -1.321284   1.042119
C  -0.180055  -0.697042   0.013036
H  -1.415093   0.894317   0.877395
H  -1.328254   0.766184  -0.852439
H  -0.061142  -1.358498   0.899043
H   0.732124  -0.157974  -0.112932
H  -0.131669  -1.392831  -0.904907
