butane_opt
 OpenBabel08242015413D

 14 13  0  0  0  0  0  0  0  0999 V2000
   -3.9231    0.2675   -0.0210 C   0  0  0  0  0  0  0  0  0  0  0  0
   -2.6869   -0.6150    0.1041 C   0  0  0  0  0  0  0  0  0  0  0  0
   -4.8727   -0.3323    0.0063 H   0  0  0  0  0  0  0  0  0  0  0  0
   -3.9433    0.9682   -0.9410 H   0  0  0  0  0  0  0  0  0  0  0  0
   -4.0384    0.8784    0.7590 H   0  0  0  0  0  0  0  0  0  0  0  0
   -1.4073    0.1714    0.0333 C   0  0  0  0  0  0  0  0  0  0  0  0
   -2.7071   -1.2601   -0.7355 H   0  0  0  0  0  0  0  0  0  0  0  0
   -2.7005   -1.2662    1.0376 H   0  0  0  0  0  0  0  0  0  0  0  0
   -0.1920   -0.6855   -0.0206 C   0  0  0  0  0  0  0  0  0  0  0  0
   -1.2540    0.8178    0.9009 H   0  0  0  0  0  0  0  0  0  0  0  0
   -1.4020    0.8585   -0.8420 H   0  0  0  0  0  0  0  0  0  0  0  0
   -0.2341   -1.1571    0.7935 H   0  0  0  0  0  0  0  0  0  0  0  0
    0.7375   -0.0675    0.2944 H   0  0  0  0  0  0  0  0  0  0  0  0
   -0.0900   -1.5915   -1.0064 H   0  0  0  0  0  0  0  0  0  0  0  0
  1  3  1  0  0  0  0
  1  2  1  0  0  0  0
  1  5  1  0  0  0  0
  2  8  1  0  0  0  0
  4  1  1  0  0  0  0
  6  2  1  0  0  0  0
  6 10  1  0  0  0  0
  7  2  1  0  0  0  0
  9  6  1  0  0  0  0
  9 13  1  0  0  0  0
  9 12  1  0  0  0  0
 11  6  1  0  0  0  0
 14  9  1  0  0  0  0
M  END
$$$$
