14
butane_opt
C  -3.951513   0.245091   0.078598
C  -2.691472  -0.593163  -0.003103
H  -4.885139  -0.343755  -0.075429
H  -3.910478   0.724438  -0.757813
H  -3.956724   1.061221   1.038844
C  -1.418923   0.200578  -0.071642
H  -2.726269  -1.282177  -0.844318
H  -2.638928  -1.218997   0.905008
C  -0.154781  -0.700386   0.080714
H  -1.381816   0.766447   0.713322
H  -1.372754   0.822193  -0.988655
H  -0.207496  -1.327563   1.029821
H   0.722789  -0.114958   0.198870
H  -0.057536  -1.392551  -0.776442
