butane_opt
 OpenBabel08242015413D

 14 13  0  0  0  0  0  0  0  0999 V2000
   -3.9482    0.2638    0.0601 C   0  0  0  0  0  0  0  0  0  0  0  0
   -2.6811   -0.6130   -0.0291 C   0  0  0  0  0  0  0  0  0  0  0  0
   -4.9070   -0.3747    0.2008 H   0  0  0  0  0  0  0  0  0  0  0  0
   -4.0712    0.9424   -0.8326 H   0  0  0  0  0  0  0  0  0  0  0  0
   -3.8052    0.9706    0.9310 H   0  0  0  0  0  0  0  0  0  0  0  0
   -1.4028    0.1719   -0.0151 C   0  0  0  0  0  0  0  0  0  0  0  0
   -2.7016   -1.4103   -0.9430 H   0  0  0  0  0  0  0  0  0  0  0  0
   -2.6564   -1.1336    0.7536 H   0  0  0  0  0  0  0  0  0  0  0  0
   -0.1789   -0.6868    0.0896 C   0  0  0  0  0  0  0  0  0  0  0  0
   -1.3980    0.7864    0.7531 H   0  0  0  0  0  0  0  0  0  0  0  0
   -1.4447    0.8381   -0.9596 H   0  0  0  0  0  0  0  0  0  0  0  0
   -0.0762   -1.4248    1.0373 H   0  0  0  0  0  0  0  0  0  0  0  0
    0.7772   -0.0682   -0.0451 H   0  0  0  0  0  0  0  0  0  0  0  0
   -0.2136   -1.2183   -0.6959 H   0  0  0  0  0  0  0  0  0  0  0  0
  1  3  1  0  0  0  0
  1  5  1  0  0  0  0
  2  6  1  0  0  0  0
  2  1  1  0  0  0  0
  2  8  1  0  0  0  0
  4  1  1  0  0  0  0
  6  9  1  0  0  0  0
  6 10  1  0  0  0  0
  7  2  1  0  0  0  0
  9 12  1  0  0  0  0
 11  6  1  0  0  0  0
 13  9  1  0  0  0  0
 14  9  1  0  0  0  0
M  END
$$$$
