14
butane_opt
C  -3.954423   0.268368   0.038908
C  -2.715343  -0.634160  -0.018610
H  -4.879148  -0.338905   0.135021
H  -4.018214   0.938955  -0.844678
H  -3.916605   0.972656   0.950122
C  -1.384284   0.200636   0.015497
H  -2.804732  -1.334435  -0.916185
H  -2.684136  -1.245464   0.835335
C  -0.156432  -0.701648   0.064619
H  -1.439423   0.839886   0.871570
H  -1.318206   0.869476  -0.931004
H  -0.004229  -1.429655   1.025961
H   0.701637  -0.099288  -0.194397
H  -0.140448  -1.236771  -0.695000
