14
butane_opt
C  -3.958479   0.274833  -0.022860
C  -2.701244  -0.637953   0.062611
H  -4.855433  -0.270880   0.076328
H  -4.008084   0.928040  -0.937155
H  -3.996435   0.939911   0.829828
C  -1.394647   0.175410   0.054113
H  -2.632206  -1.296594  -0.767291
H  -2.744484  -1.289530   0.977750
C  -0.162954  -0.680730  -0.002126
H  -1.336083   0.906805   0.977637
H  -1.375719   0.739842  -0.790859
H  -0.025810  -1.318933   0.911790
H   0.736049  -0.100992  -0.121829
H  -0.184738  -1.279299  -0.812102
