14
butane_opt
C  -3.921187   0.258885  -0.037992
C  -2.693286  -0.595697   0.076726
H  -4.845238  -0.399466   0.006376
H  -3.893681   0.897919  -0.976477
H  -4.019979   0.785253   0.729687
C  -1.423405   0.194044   0.106153
H  -2.696772  -1.246994  -0.757246
H  -2.752359  -1.248170   0.979714
C  -0.171785  -0.699343  -0.020372
H  -1.324554   0.908513   0.947798
H  -1.428920   0.812463  -0.755042
H   0.055335  -1.344335   0.915930
H   0.688771  -0.178978  -0.274053
H  -0.280454  -1.360894  -0.876380
