14
butane_opt
C  -3.975875   0.284602   0.042140
C  -2.705752  -0.643416   0.007033
H  -4.822297  -0.236800   0.000140
H  -3.996431   0.816021  -0.800175
H  -3.987899   1.024945   0.970216
C  -1.383403   0.172041  -0.000344
H  -2.683427  -1.451552  -0.948857
H  -2.682158  -1.134395   0.786733
C  -0.154667  -0.684908   0.068598
H  -1.354113   0.817038   0.809023
H  -1.339699   0.844484  -0.872294
H  -0.118867  -1.537075   1.127032
H   0.825554  -0.005090  -0.299412
H  -0.240889  -1.134915  -0.713303
