butane_opt
 OpenBabel08242015413D

 14 13  0  0  0  0  0  0  0  0999 V2000
   -3.9686    0.2832   -0.0190 C   0  0  0  0  0  0  0  0  0  0  0  0
   -2.6995   -0.6286    0.1023 C   0  0  0  0  0  0  0  0  0  0  0  0
   -4.8476   -0.3103   -0.2384 H   0  0  0  0  0  0  0  0  0  0  0  0
   -3.8348    0.7631   -0.8158 H   0  0  0  0  0  0  0  0  0  0  0  0
   -4.2269    1.0060    0.8352 H   0  0  0  0  0  0  0  0  0  0  0  0
   -1.4054    0.1602    0.0394 C   0  0  0  0  0  0  0  0  0  0  0  0
   -2.6252   -1.2060   -0.6832 H   0  0  0  0  0  0  0  0  0  0  0  0
   -2.7147   -1.3176    1.0599 H   0  0  0  0  0  0  0  0  0  0  0  0
   -0.1460   -0.6719   -0.0166 C   0  0  0  0  0  0  0  0  0  0  0  0
   -1.2833    0.8862    0.9203 H   0  0  0  0  0  0  0  0  0  0  0  0
   -1.3653    0.7091   -0.8121 H   0  0  0  0  0  0  0  0  0  0  0  0
   -0.1310   -1.2989    0.8581 H   0  0  0  0  0  0  0  0  0  0  0  0
    0.7685   -0.0829   -0.0613 H   0  0  0  0  0  0  0  0  0  0  0  0
   -0.1332   -1.3408   -0.8853 H   0  0  0  0  0  0  0  0  0  0  0  0
  1  2  1  0  0  0  0
  1  5  1  0  0  0  0
  2  8  1  0  0  0  0
  3  1  1  0  0  0  0
  4  1  1  0  0  0  0
  6  2  1  0  0  0  0
  6 10  1  0  0  0  0
  7  2  1  0  0  0  0
  9  6  1  0  0  0  0
  9 12  1  0  0  0  0
 11  6  1  0  0  0  0
 13  9  1  0  0  0  0
 14  9  1  0  0  0  0
M  END
$$$$
