14
butane_opt
C  -3.968623   0.283219  -0.019020
C  -2.699466  -0.628554   0.102329
H  -4.847558  -0.310349  -0.238361
H  -3.834805   0.763084  -0.815828
H  -4.226899   1.005988   0.835205
C  -1.405360   0.160168   0.039439
H  -2.625223  -1.205991  -0.683188
H  -2.714716  -1.317581   1.059882
C  -0.145989  -0.671924  -0.016618
H  -1.283323   0.886170   0.920319
H  -1.365261   0.709128  -0.812056
H  -0.130993  -1.298917   0.858125
H   0.768491  -0.082923  -0.061261
H  -0.133226  -1.340788  -0.885333
