14
butane_opt
C  -3.966706   0.280832   0.055754
C  -2.686439  -0.631520  -0.006374
H  -4.825226  -0.267103   0.100154
H  -3.996513   0.829222  -0.809669
H  -4.009280   1.066171   0.962890
C  -1.396331   0.146760  -0.028081
H  -2.802761  -1.365533  -0.896675
H  -2.681057  -1.189570   0.770628
C  -0.146836  -0.669172   0.072905
H  -1.456119   0.824467   0.811909
H  -1.343360   0.741776  -0.912027
H  -0.151847  -1.411503   1.038633
H   0.786036  -0.056140  -0.101817
H  -0.201289  -1.142125  -0.626261
