butane_opt
 OpenBabel08242015413D

 14 13  0  0  0  0  0  0  0  0999 V2000
   -3.9457    0.2492    0.0077 C   0  0  0  0  0  0  0  0  0  0  0  0
   -2.7018   -0.6089    0.0438 C   0  0  0  0  0  0  0  0  0  0  0  0
   -4.8986   -0.3680    0.1648 H   0  0  0  0  0  0  0  0  0  0  0  0
   -4.0174    0.9999   -0.9889 H   0  0  0  0  0  0  0  0  0  0  0  0
   -3.9605    0.8154    0.8193 H   0  0  0  0  0  0  0  0  0  0  0  0
   -1.4018    0.2049    0.0246 C   0  0  0  0  0  0  0  0  0  0  0  0
   -2.6873   -1.2630   -0.8056 H   0  0  0  0  0  0  0  0  0  0  0  0
   -2.7477   -1.2215    0.9396 H   0  0  0  0  0  0  0  0  0  0  0  0
   -0.1511   -0.7021    0.0120 C   0  0  0  0  0  0  0  0  0  0  0  0
   -1.3797    0.9408    0.9148 H   0  0  0  0  0  0  0  0  0  0  0  0
   -1.4278    0.7638   -0.8161 H   0  0  0  0  0  0  0  0  0  0  0  0
   -0.1058   -1.2972    0.9167 H   0  0  0  0  0  0  0  0  0  0  0  0
    0.6975   -0.1573    0.0783 H   0  0  0  0  0  0  0  0  0  0  0  0
   -0.0765   -1.4119   -0.8488 H   0  0  0  0  0  0  0  0  0  0  0  0
  1  2  1  0  0  0  0
  1  3  1  0  0  0  0
  1  5  1  0  0  0  0
  2  8  1  0  0  0  0
  4  1  1  0  0  0  0
  6  2  1  0  0  0  0
  6 10  1  0  0  0  0
  7  2  1  0  0  0  0
  9  6  1  0  0  0  0
  9 13  1  0  0  0  0
  9 12  1  0  0  0  0
 11  6  1  0  0  0  0
 14  9  1  0  0  0  0
M  END
$$$$
