butane_opt
 OpenBabel08242015413D

 14 13  0  0  0  0  0  0  0  0999 V2000
   -3.9595    0.2765    0.0625 C   0  0  0  0  0  0  0  0  0  0  0  0
   -2.6963   -0.6443   -0.0030 C   0  0  0  0  0  0  0  0  0  0  0  0
   -4.7905   -0.2318    0.0885 H   0  0  0  0  0  0  0  0  0  0  0  0
   -4.1137    0.7778   -0.7313 H   0  0  0  0  0  0  0  0  0  0  0  0
   -4.0784    1.0052    0.9675 H   0  0  0  0  0  0  0  0  0  0  0  0
   -1.3931    0.1803   -0.0614 C   0  0  0  0  0  0  0  0  0  0  0  0
   -2.7182   -1.2892   -0.8705 H   0  0  0  0  0  0  0  0  0  0  0  0
   -2.6092   -1.2875    0.8839 H   0  0  0  0  0  0  0  0  0  0  0  0
   -0.1625   -0.6744    0.0851 C   0  0  0  0  0  0  0  0  0  0  0  0
   -1.4406    0.7953    0.7329 H   0  0  0  0  0  0  0  0  0  0  0  0
   -1.2692    0.8526   -0.9861 H   0  0  0  0  0  0  0  0  0  0  0  0
   -0.1846   -1.2248    0.9691 H   0  0  0  0  0  0  0  0  0  0  0  0
    0.7993   -0.0827    0.1876 H   0  0  0  0  0  0  0  0  0  0  0  0
   -0.0813   -1.4392   -0.7977 H   0  0  0  0  0  0  0  0  0  0  0  0
  1  3  1  0  0  0  0
  1  5  1  0  0  0  0
  2  1  1  0  0  0  0
  2  8  1  0  0  0  0
  4  1  1  0  0  0  0
  6  2  1  0  0  0  0
  6  9  1  0  0  0  0
  6 10  1  0  0  0  0
  7  2  1  0  0  0  0
  9 13  1  0  0  0  0
  9 12  1  0  0  0  0
 11  6  1  0  0  0  0
 14  9  1  0  0  0  0
M  END
$$$$
