butane_opt
 OpenBabel08242015413D

 14 13  0  0  0  0  0  0  0  0999 V2000
   -3.9547    0.2496    0.0724 C   0  0  0  0  0  0  0  0  0  0  0  0
   -2.6975   -0.6103   -0.0472 C   0  0  0  0  0  0  0  0  0  0  0  0
   -4.9182   -0.3589    0.2801 H   0  0  0  0  0  0  0  0  0  0  0  0
   -4.0095    0.8830   -0.8243 H   0  0  0  0  0  0  0  0  0  0  0  0
   -3.7878    0.8979    0.9373 H   0  0  0  0  0  0  0  0  0  0  0  0
   -1.4157    0.2154   -0.0309 C   0  0  0  0  0  0  0  0  0  0  0  0
   -2.7758   -1.3186   -0.9379 H   0  0  0  0  0  0  0  0  0  0  0  0
   -2.7304   -1.2301    0.8379 H   0  0  0  0  0  0  0  0  0  0  0  0
   -0.1458   -0.7110    0.0874 C   0  0  0  0  0  0  0  0  0  0  0  0
   -1.5135    0.9029    0.8175 H   0  0  0  0  0  0  0  0  0  0  0  0
   -1.2995    0.8604   -1.0054 H   0  0  0  0  0  0  0  0  0  0  0  0
   -0.0852   -1.3771    1.0256 H   0  0  0  0  0  0  0  0  0  0  0  0
    0.6903   -0.2017    0.0634 H   0  0  0  0  0  0  0  0  0  0  0  0
   -0.0302   -1.2592   -0.7251 H   0  0  0  0  0  0  0  0  0  0  0  0
  1  3  1  0  0  0  0
  1  5  1  0  0  0  0
  2  6  1  0  0  0  0
  2  1  1  0  0  0  0
  2  8  1  0  0  0  0
  4  1  1  0  0  0  0
  6  9  1  0  0  0  0
  6 10  1  0  0  0  0
  7  2  1  0  0  0  0
  9 12  1  0  0  0  0
 11  6  1  0  0  0  0
 13  9  1  0  0  0  0
 14  9  1  0  0  0  0
M  END
$$$$
