14
butane_opt
C  -3.945816   0.248089   0.002318
C  -2.724663  -0.592653   0.040210
H  -4.926989  -0.380920   0.246212
H  -3.970333   1.165709  -1.075691
H  -3.913172   0.692818   0.728958
C  -1.406937   0.192964   0.053148
H  -2.757862  -1.317823  -0.852099
H  -2.720569  -1.164801   0.942843
C  -0.132372  -0.704507   0.009182
H  -1.293540   0.916141   0.933836
H  -1.401162   0.773436  -0.800797
H  -0.061603  -1.271206   0.885466
H   0.717277  -0.201334   0.049025
H  -0.158133  -1.424238  -0.901196
