butane_opt
 OpenBabel08242015413D

 14 13  0  0  0  0  0  0  0  0999 V2000
   -3.9466    0.2699    0.0081 C   0  0  0  0  0  0  0  0  0  0  0  0
   -2.7025   -0.6341    0.0457 C   0  0  0  0  0  0  0  0  0  0  0  0
   -4.8545   -0.3050    0.1455 H   0  0  0  0  0  0  0  0  0  0  0  0
   -4.0613    1.0366   -0.9628 H   0  0  0  0  0  0  0  0  0  0  0  0
   -3.9195    0.8446    0.8077 H   0  0  0  0  0  0  0  0  0  0  0  0
   -1.4056    0.1809    0.0257 C   0  0  0  0  0  0  0  0  0  0  0  0
   -2.6520   -1.3553   -0.8155 H   0  0  0  0  0  0  0  0  0  0  0  0
   -2.7354   -1.2328    0.9175 H   0  0  0  0  0  0  0  0  0  0  0  0
   -0.1582   -0.6870    0.0237 C   0  0  0  0  0  0  0  0  0  0  0  0
   -1.3815    0.9028    0.9055 H   0  0  0  0  0  0  0  0  0  0  0  0
   -1.4071    0.8132   -0.8819 H   0  0  0  0  0  0  0  0  0  0  0  0
   -0.1239   -1.2429    0.8946 H   0  0  0  0  0  0  0  0  0  0  0  0
    0.7922   -0.0731    0.0483 H   0  0  0  0  0  0  0  0  0  0  0  0
   -0.1336   -1.4094   -0.8741 H   0  0  0  0  0  0  0  0  0  0  0  0
  1  2  1  0  0  0  0
  1  3  1  0  0  0  0
  1  5  1  0  0  0  0
  2  8  1  0  0  0  0
  4  1  1  0  0  0  0
  6  2  1  0  0  0  0
  6 10  1  0  0  0  0
  7  2  1  0  0  0  0
  9  6  1  0  0  0  0
  9 13  1  0  0  0  0
  9 12  1  0  0  0  0
 11  6  1  0  0  0  0
 14  9  1  0  0  0  0
M  END
$$$$
