14
butane_opt
C  -3.979548   0.272883  -0.033957
C  -2.696889  -0.630601   0.089350
H  -4.901580  -0.285723  -0.066408
H  -3.944297   0.964765  -0.948734
H  -4.110574   0.910949   0.799716
C  -1.388352   0.158280   0.067275
H  -2.649315  -1.183553  -0.679772
H  -2.679322  -1.376613   1.048536
C  -0.152899  -0.673149  -0.020271
H  -1.292101   0.924460   1.016444
H  -1.399178   0.771834  -0.824310
H  -0.024856  -1.246800   0.809568
H   0.764668  -0.052871  -0.010623
H  -0.182574  -1.430234  -0.944375
