butane_opt
 OpenBabel08242015413D

 14 13  0  0  0  0  0  0  0  0999 V2000
   -3.9795    0.2729   -0.0340 C   0  0  0  0  0  0  0  0  0  0  0  0
   -2.6969   -0.6306    0.0893 C   0  0  0  0  0  0  0  0  0  0  0  0
   -4.9016   -0.2857   -0.0664 H   0  0  0  0  0  0  0  0  0  0  0  0
   -3.9443    0.9648   -0.9487 H   0  0  0  0  0  0  0  0  0  0  0  0
   -4.1106    0.9109    0.7997 H   0  0  0  0  0  0  0  0  0  0  0  0
   -1.3884    0.1583    0.0673 C   0  0  0  0  0  0  0  0  0  0  0  0
   -2.6493   -1.1836   -0.6798 H   0  0  0  0  0  0  0  0  0  0  0  0
   -2.6793   -1.3766    1.0485 H   0  0  0  0  0  0  0  0  0  0  0  0
   -0.1529   -0.6731   -0.0203 C   0  0  0  0  0  0  0  0  0  0  0  0
   -1.2921    0.9245    1.0164 H   0  0  0  0  0  0  0  0  0  0  0  0
   -1.3992    0.7718   -0.8243 H   0  0  0  0  0  0  0  0  0  0  0  0
   -0.0249   -1.2468    0.8096 H   0  0  0  0  0  0  0  0  0  0  0  0
    0.7647   -0.0529   -0.0106 H   0  0  0  0  0  0  0  0  0  0  0  0
   -0.1826   -1.4302   -0.9444 H   0  0  0  0  0  0  0  0  0  0  0  0
  1  2  1  0  0  0  0
  1  5  1  0  0  0  0
  2  8  1  0  0  0  0
  3  1  1  0  0  0  0
  4  1  1  0  0  0  0
  6  2  1  0  0  0  0
  6 10  1  0  0  0  0
  7  2  1  0  0  0  0
  9 13  1  0  0  0  0
  9  6  1  0  0  0  0
  9 12  1  0  0  0  0
 11  6  1  0  0  0  0
 14  9  1  0  0  0  0
M  END
$$$$
