butane_opt
 OpenBabel08242015413D

 14 13  0  0  0  0  0  0  0  0999 V2000
   -3.9647    0.2766   -0.0093 C   0  0  0  0  0  0  0  0  0  0  0  0
   -2.7023   -0.6233    0.0802 C   0  0  0  0  0  0  0  0  0  0  0  0
   -4.8473   -0.2655    0.1160 H   0  0  0  0  0  0  0  0  0  0  0  0
   -4.0050    1.0034   -1.0127 H   0  0  0  0  0  0  0  0  0  0  0  0
   -3.9631    0.9071    0.7970 H   0  0  0  0  0  0  0  0  0  0  0  0
   -1.3940    0.1548    0.0383 C   0  0  0  0  0  0  0  0  0  0  0  0
   -2.6842   -1.3151   -0.7601 H   0  0  0  0  0  0  0  0  0  0  0  0
   -2.7829   -1.3237    0.9907 H   0  0  0  0  0  0  0  0  0  0  0  0
   -0.1460   -0.6705   -0.0014 C   0  0  0  0  0  0  0  0  0  0  0  0
   -1.4148    0.7464    0.8478 H   0  0  0  0  0  0  0  0  0  0  0  0
   -1.3936    0.8404   -0.8783 H   0  0  0  0  0  0  0  0  0  0  0  0
   -0.1716   -1.1052    0.7545 H   0  0  0  0  0  0  0  0  0  0  0  0
    0.8162   -0.0456    0.2604 H   0  0  0  0  0  0  0  0  0  0  0  0
   -0.1139   -1.5432   -0.9882 H   0  0  0  0  0  0  0  0  0  0  0  0
  1  2  1  0  0  0  0
  1  3  1  0  0  0  0
  1  5  1  0  0  0  0
  2  8  1  0  0  0  0
  4  1  1  0  0  0  0
  6  2  1  0  0  0  0
  6 10  1  0  0  0  0
  7  2  1  0  0  0  0
  9  6  1  0  0  0  0
  9 13  1  0  0  0  0
  9 12  1  0  0  0  0
 11  6  1  0  0  0  0
 14  9  1  0  0  0  0
M  END
$$$$
