14
butane_opt
C  -3.951622   0.274985  -0.033185
C  -2.664106  -0.615256   0.091851
H  -4.914559  -0.377663  -0.197879
H  -3.929234   0.786790  -0.865372
H  -3.958743   1.072039   0.910785
C  -1.407534   0.169255   0.045940
H  -2.608276  -1.269762  -0.676381
H  -2.784151  -1.375618   1.091224
C  -0.173195  -0.674817  -0.007351
H  -1.321521   0.883571   0.930733
H  -1.473261   0.757064  -0.813152
H  -0.131023  -1.328930   0.885120
H   0.746443  -0.077864  -0.108791
H  -0.288922  -1.387830  -0.874192
