14
butane_opt
C  -3.974825   0.284797   0.041046
C  -2.694919  -0.648876   0.027784
H  -4.816347  -0.241680  -0.159555
H  -3.965750   0.695096  -0.731494
H  -4.113760   1.116655   0.959044
C  -1.385142   0.171142  -0.017484
H  -2.724760  -1.308231  -0.832387
H  -2.708203  -1.245802   0.903394
C  -0.137120  -0.677848   0.065891
H  -1.399243   0.754945   0.806830
H  -1.389423   0.874028  -0.957950
H  -0.169226  -1.314001   0.992194
H   0.793097  -0.073611  -0.134945
H  -0.230777  -1.277995  -0.792633
