butane_opt
 OpenBabel08242015413D

 14 13  0  0  0  0  0  0  0  0999 V2000
   -3.9429    0.2606    0.0552 C   0  0  0  0  0  0  0  0  0  0  0  0
   -2.7250   -0.5977    0.0334 C   0  0  0  0  0  0  0  0  0  0  0  0
   -4.9591   -0.4051    0.0301 H   0  0  0  0  0  0  0  0  0  0  0  0
   -3.9867    0.8895   -0.8896 H   0  0  0  0  0  0  0  0  0  0  0  0
   -3.9611    0.8609    0.8660 H   0  0  0  0  0  0  0  0  0  0  0  0
   -1.3901    0.1856   -0.0464 C   0  0  0  0  0  0  0  0  0  0  0  0
   -2.7641   -1.1830   -0.7911 H   0  0  0  0  0  0  0  0  0  0  0  0
   -2.7171   -1.2480    0.9098 H   0  0  0  0  0  0  0  0  0  0  0  0
   -0.1411   -0.7050    0.0477 C   0  0  0  0  0  0  0  0  0  0  0  0
   -1.4462    0.9269    0.8220 H   0  0  0  0  0  0  0  0  0  0  0  0
   -1.3651    0.8067   -0.9054 H   0  0  0  0  0  0  0  0  0  0  0  0
   -0.2160   -1.2001    0.8897 H   0  0  0  0  0  0  0  0  0  0  0  0
    0.7182   -0.1479    0.2954 H   0  0  0  0  0  0  0  0  0  0  0  0
    0.0743   -1.5229   -0.8889 H   0  0  0  0  0  0  0  0  0  0  0  0
  1  5  1  0  0  0  0
  2  1  1  0  0  0  0
  2  8  1  0  0  0  0
  3  1  1  0  0  0  0
  4  1  1  0  0  0  0
  6  2  1  0  0  0  0
  6  9  1  0  0  0  0
  6 10  1  0  0  0  0
  7  2  1  0  0  0  0
  9 13  1  0  0  0  0
  9 12  1  0  0  0  0
 11  6  1  0  0  0  0
 14  9  1  0  0  0  0
M  END
$$$$
