14
butane_opt
C  -3.949957   0.259495  -0.007483
C  -2.711245  -0.605436   0.062485
H  -4.868378  -0.340434   0.094760
H  -3.969029   0.922770  -0.930833
H  -3.969501   0.867703   0.782612
C  -1.392157   0.194952   0.029826
H  -2.709423  -1.209465  -0.722787
H  -2.714219  -1.320776   1.033837
C  -0.152058  -0.702413   0.006720
H  -1.389260   0.871318   0.893458
H  -1.381119   0.778601  -0.840161
H  -0.179974  -1.170191   0.805743
H   0.723692  -0.128430   0.146001
H  -0.092715  -1.509772  -0.945549
