14
butane_opt
C  -3.940588   0.255738  -0.007957
C  -2.697974  -0.608590   0.042688
H  -4.850590  -0.357942  -0.012529
H  -3.880498   0.872260  -0.969974
H  -3.914355   0.904239   0.851406
C  -1.424334   0.201144   0.069215
H  -2.686791  -1.249675  -0.790497
H  -2.731389  -1.324046   0.975840
C  -0.157340  -0.702968  -0.000223
H  -1.343417   0.990329   0.962732
H  -1.413128   0.783325  -0.785734
H   0.030580  -1.437285   0.944343
H   0.690415  -0.169669  -0.224869
H  -0.275294  -1.223838  -0.739364
