butane_opt
 OpenBabel08242015413D

 14 13  0  0  0  0  0  0  0  0999 V2000
   -3.9613    0.2512    0.0621 C   0  0  0  0  0  0  0  0  0  0  0  0
   -2.7138   -0.5953   -0.0058 C   0  0  0  0  0  0  0  0  0  0  0  0
   -4.8850   -0.4010    0.1110 H   0  0  0  0  0  0  0  0  0  0  0  0
   -4.0581    0.8466   -0.8396 H   0  0  0  0  0  0  0  0  0  0  0  0
   -3.7751    0.9659    0.9868 H   0  0  0  0  0  0  0  0  0  0  0  0
   -1.3822    0.1946   -0.0568 C   0  0  0  0  0  0  0  0  0  0  0  0
   -2.7752   -1.2377   -0.8562 H   0  0  0  0  0  0  0  0  0  0  0  0
   -2.6920   -1.1802    0.8819 H   0  0  0  0  0  0  0  0  0  0  0  0
   -0.1520   -0.7069    0.0831 C   0  0  0  0  0  0  0  0  0  0  0  0
   -1.5141    0.8164    0.7669 H   0  0  0  0  0  0  0  0  0  0  0  0
   -1.3102    0.8639   -0.9558 H   0  0  0  0  0  0  0  0  0  0  0  0
   -0.1706   -1.2670    0.9307 H   0  0  0  0  0  0  0  0  0  0  0  0
    0.6978   -0.1551    0.1837 H   0  0  0  0  0  0  0  0  0  0  0  0
   -0.0208   -1.4573   -0.7803 H   0  0  0  0  0  0  0  0  0  0  0  0
  1  3  1  0  0  0  0
  1  5  1  0  0  0  0
  2  1  1  0  0  0  0
  2  8  1  0  0  0  0
  4  1  1  0  0  0  0
  6  2  1  0  0  0  0
  6  9  1  0  0  0  0
  6 10  1  0  0  0  0
  7  2  1  0  0  0  0
  9 13  1  0  0  0  0
  9 12  1  0  0  0  0
 11  6  1  0  0  0  0
 14  9  1  0  0  0  0
M  END
$$$$
