14
butane_opt
C  -3.961299   0.251232   0.062116
C  -2.713785  -0.595280  -0.005806
H  -4.885003  -0.400979   0.111009
H  -4.058051   0.846598  -0.839567
H  -3.775143   0.965918   0.986800
C  -1.382248   0.194634  -0.056815
H  -2.775150  -1.237739  -0.856234
H  -2.692043  -1.180230   0.881926
C  -0.151976  -0.706916   0.083135
H  -1.514053   0.816443   0.766924
H  -1.310202   0.863853  -0.955836
H  -0.170575  -1.266962   0.930736
H   0.697828  -0.155083   0.183688
H  -0.020794  -1.457343  -0.780305
