butane_opt
 OpenBabel08242015413D

 14 13  0  0  0  0  0  0  0  0999 V2000
   -3.9322    0.2458   -0.0217 C   0  0  0  0  0  0  0  0  0  0  0  0
   -2.7149   -0.6098    0.0588 C   0  0  0  0  0  0  0  0  0  0  0  0
   -4.8517   -0.3509    0.2480 H   0  0  0  0  0  0  0  0  0  0  0  0
   -3.9987    1.1276   -1.1222 H   0  0  0  0  0  0  0  0  0  0  0  0
   -3.8918    0.6895    0.6522 H   0  0  0  0  0  0  0  0  0  0  0  0
   -1.3902    0.2220    0.0728 C   0  0  0  0  0  0  0  0  0  0  0  0
   -2.7974   -1.2077   -0.7582 H   0  0  0  0  0  0  0  0  0  0  0  0
   -2.7064   -1.2758    1.0009 H   0  0  0  0  0  0  0  0  0  0  0  0
   -0.1501   -0.7157   -0.0218 C   0  0  0  0  0  0  0  0  0  0  0  0
   -1.3965    1.0215    1.0357 H   0  0  0  0  0  0  0  0  0  0  0  0
   -1.4802    0.7158   -0.7026 H   0  0  0  0  0  0  0  0  0  0  0  0
   -0.1134   -1.2852    0.8035 H   0  0  0  0  0  0  0  0  0  0  0  0
    0.6821   -0.2023    0.0726 H   0  0  0  0  0  0  0  0  0  0  0  0
   -0.1980   -1.4177   -0.8797 H   0  0  0  0  0  0  0  0  0  0  0  0
  1  2  1  0  0  0  0
  1  3  1  0  0  0  0
  1  5  1  0  0  0  0
  2  6  1  0  0  0  0
  2  8  1  0  0  0  0
  4  1  1  0  0  0  0
  6 10  1  0  0  0  0
  7  2  1  0  0  0  0
  9 13  1  0  0  0  0
  9  6  1  0  0  0  0
  9 12  1  0  0  0  0
 11  6  1  0  0  0  0
 14  9  1  0  0  0  0
M  END
$$$$
