14
butane_opt
C  -3.957473   0.278464   0.063129
C  -2.703114  -0.625295  -0.009070
H  -4.882712  -0.301265   0.142903
H  -4.085855   0.830919  -0.762572
H  -3.973074   1.098766   0.995907
C  -1.377692   0.152077  -0.065324
H  -2.704737  -1.333879  -0.867525
H  -2.646686  -1.263302   0.848545
C  -0.172367  -0.678371   0.100381
H  -1.332029   0.752862   0.752178
H  -1.332505   0.924543  -1.039979
H  -0.246400  -1.217733   0.968695
H   0.798010  -0.038023   0.190648
H  -0.090586  -1.451588  -0.846638
