butane_opt
 OpenBabel08242015413D

 14 13  0  0  0  0  0  0  0  0999 V2000
   -3.9575    0.2785    0.0631 C   0  0  0  0  0  0  0  0  0  0  0  0
   -2.7031   -0.6253   -0.0091 C   0  0  0  0  0  0  0  0  0  0  0  0
   -4.8827   -0.3013    0.1429 H   0  0  0  0  0  0  0  0  0  0  0  0
   -4.0859    0.8309   -0.7626 H   0  0  0  0  0  0  0  0  0  0  0  0
   -3.9731    1.0988    0.9959 H   0  0  0  0  0  0  0  0  0  0  0  0
   -1.3777    0.1521   -0.0653 C   0  0  0  0  0  0  0  0  0  0  0  0
   -2.7047   -1.3339   -0.8675 H   0  0  0  0  0  0  0  0  0  0  0  0
   -2.6467   -1.2633    0.8485 H   0  0  0  0  0  0  0  0  0  0  0  0
   -0.1724   -0.6784    0.1004 C   0  0  0  0  0  0  0  0  0  0  0  0
   -1.3320    0.7529    0.7522 H   0  0  0  0  0  0  0  0  0  0  0  0
   -1.3325    0.9245   -1.0400 H   0  0  0  0  0  0  0  0  0  0  0  0
   -0.2464   -1.2177    0.9687 H   0  0  0  0  0  0  0  0  0  0  0  0
    0.7980   -0.0380    0.1906 H   0  0  0  0  0  0  0  0  0  0  0  0
   -0.0906   -1.4516   -0.8466 H   0  0  0  0  0  0  0  0  0  0  0  0
  1  3  1  0  0  0  0
  1  5  1  0  0  0  0
  2  1  1  0  0  0  0
  2  8  1  0  0  0  0
  4  1  1  0  0  0  0
  6  2  1  0  0  0  0
  6  9  1  0  0  0  0
  6 10  1  0  0  0  0
  7  2  1  0  0  0  0
  9 13  1  0  0  0  0
  9 12  1  0  0  0  0
 11  6  1  0  0  0  0
 14  9  1  0  0  0  0
M  END
$$$$
