butane_opt
 OpenBabel08242015413D

 14 13  0  0  0  0  0  0  0  0999 V2000
   -3.9732    0.2580   -0.0232 C   0  0  0  0  0  0  0  0  0  0  0  0
   -2.7009   -0.6052    0.0556 C   0  0  0  0  0  0  0  0  0  0  0  0
   -4.8366   -0.3283    0.1077 H   0  0  0  0  0  0  0  0  0  0  0  0
   -3.9923    0.9192   -0.9574 H   0  0  0  0  0  0  0  0  0  0  0  0
   -4.0137    0.8167    0.7755 H   0  0  0  0  0  0  0  0  0  0  0  0
   -1.3897    0.1942    0.0705 C   0  0  0  0  0  0  0  0  0  0  0  0
   -2.6097   -1.2447   -0.7705 H   0  0  0  0  0  0  0  0  0  0  0  0
   -2.7706   -1.3528    1.0028 H   0  0  0  0  0  0  0  0  0  0  0  0
   -0.1451   -0.6883   -0.0083 C   0  0  0  0  0  0  0  0  0  0  0  0
   -1.3816    0.9609    1.0244 H   0  0  0  0  0  0  0  0  0  0  0  0
   -1.3863    0.7630   -0.7958 H   0  0  0  0  0  0  0  0  0  0  0  0
    0.0100   -1.3758    0.9113 H   0  0  0  0  0  0  0  0  0  0  0  0
    0.6959   -0.1522   -0.1307 H   0  0  0  0  0  0  0  0  0  0  0  0
   -0.2297   -1.3757   -0.8601 H   0  0  0  0  0  0  0  0  0  0  0  0
  1  2  1  0  0  0  0
  1  3  1  0  0  0  0
  1  5  1  0  0  0  0
  2  6  1  0  0  0  0
  2  8  1  0  0  0  0
  4  1  1  0  0  0  0
  6 10  1  0  0  0  0
  7  2  1  0  0  0  0
  9  6  1  0  0  0  0
  9 12  1  0  0  0  0
 11  6  1  0  0  0  0
 13  9  1  0  0  0  0
 14  9  1  0  0  0  0
M  END
$$$$
