butane_opt
 OpenBabel08242015413D

 14 13  0  0  0  0  0  0  0  0999 V2000
   -3.9573    0.2478   -0.0353 C   0  0  0  0  0  0  0  0  0  0  0  0
   -2.7144   -0.5847    0.0751 C   0  0  0  0  0  0  0  0  0  0  0  0
   -4.9156   -0.4310    0.0299 H   0  0  0  0  0  0  0  0  0  0  0  0
   -3.9221    0.9184   -0.9918 H   0  0  0  0  0  0  0  0  0  0  0  0
   -4.0052    0.8635    0.7915 H   0  0  0  0  0  0  0  0  0  0  0  0
   -1.4066    0.1998    0.0932 C   0  0  0  0  0  0  0  0  0  0  0  0
   -2.6433   -1.2998   -0.7319 H   0  0  0  0  0  0  0  0  0  0  0  0
   -2.7382   -1.2217    0.9684 H   0  0  0  0  0  0  0  0  0  0  0  0
   -0.1395   -0.7081   -0.0130 C   0  0  0  0  0  0  0  0  0  0  0  0
   -1.3256    0.8609    0.9300 H   0  0  0  0  0  0  0  0  0  0  0  0
   -1.4821    0.8070   -0.7764 H   0  0  0  0  0  0  0  0  0  0  0  0
    0.0588   -1.3614    0.8406 H   0  0  0  0  0  0  0  0  0  0  0  0
    0.7206   -0.1440   -0.2017 H   0  0  0  0  0  0  0  0  0  0  0  0
   -0.1490   -1.3181   -0.8555 H   0  0  0  0  0  0  0  0  0  0  0  0
  1  3  1  0  0  0  0
  1  2  1  0  0  0  0
  1  5  1  0  0  0  0
  2  6  1  0  0  0  0
  2  8  1  0  0  0  0
  4  1  1  0  0  0  0
  6 10  1  0  0  0  0
  7  2  1  0  0  0  0
  9  6  1  0  0  0  0
  9 12  1  0  0  0  0
 11  6  1  0  0  0  0
 13  9  1  0  0  0  0
 14  9  1  0  0  0  0
M  END
$$$$
