butane_opt
 OpenBabel08242015413D

 14 13  0  0  0  0  0  0  0  0999 V2000
   -3.9580    0.2542    0.0760 C   0  0  0  0  0  0  0  0  0  0  0  0
   -2.7133   -0.6087   -0.0299 C   0  0  0  0  0  0  0  0  0  0  0  0
   -4.8417   -0.3101    0.2063 H   0  0  0  0  0  0  0  0  0  0  0  0
   -4.0439    0.9677   -0.8519 H   0  0  0  0  0  0  0  0  0  0  0  0
   -3.8254    0.7247    0.8468 H   0  0  0  0  0  0  0  0  0  0  0  0
   -1.4192    0.2151   -0.0321 C   0  0  0  0  0  0  0  0  0  0  0  0
   -2.8038   -1.3915   -0.9830 H   0  0  0  0  0  0  0  0  0  0  0  0
   -2.6278   -1.1305    0.7397 H   0  0  0  0  0  0  0  0  0  0  0  0
   -0.1461   -0.7033    0.0932 C   0  0  0  0  0  0  0  0  0  0  0  0
   -1.3474    0.8548    0.7856 H   0  0  0  0  0  0  0  0  0  0  0  0
   -1.3360    0.8386   -0.9000 H   0  0  0  0  0  0  0  0  0  0  0  0
   -0.0400   -1.3774    1.0392 H   0  0  0  0  0  0  0  0  0  0  0  0
    0.7376   -0.2041   -0.0086 H   0  0  0  0  0  0  0  0  0  0  0  0
   -0.0624   -1.3258   -0.7329 H   0  0  0  0  0  0  0  0  0  0  0  0
  1  3  1  0  0  0  0
  1  5  1  0  0  0  0
  2  1  1  0  0  0  0
  2  8  1  0  0  0  0
  4  1  1  0  0  0  0
  6  2  1  0  0  0  0
  6  9  1  0  0  0  0
  6 10  1  0  0  0  0
  7  2  1  0  0  0  0
  9 12  1  0  0  0  0
 11  6  1  0  0  0  0
 13  9  1  0  0  0  0
 14  9  1  0  0  0  0
M  END
$$$$
