14
butane_opt
C  -3.957276   0.247755  -0.035303
C  -2.714439  -0.584717   0.075134
H  -4.915563  -0.430970   0.029868
H  -3.922073   0.918357  -0.991761
H  -4.005169   0.863474   0.791539
C  -1.406556   0.199783   0.093245
H  -2.643260  -1.299840  -0.731862
H  -2.738161  -1.221680   0.968421
C  -0.139451  -0.708099  -0.013013
H  -1.325641   0.860931   0.929981
H  -1.482129   0.806978  -0.776449
H   0.058810  -1.361410   0.840639
H   0.720590  -0.144022  -0.201666
H  -0.149025  -1.318067  -0.855455
