14
butane_opt
C  -3.966197   0.290436   0.081526
C  -2.695094  -0.652237  -0.008433
H  -4.822254  -0.253068  -0.030123
H  -4.034211   0.814709  -0.742223
H  -3.958506   1.008820   0.970797
C  -1.394079   0.178217  -0.074546
H  -2.835726  -1.314389  -0.883681
H  -2.574901  -1.352672   0.899123
C  -0.158208  -0.671654   0.081756
H  -1.361524   0.834539   0.795278
H  -1.275263   0.829821  -1.017547
H  -0.304661  -1.259046   0.985525
H   0.721397  -0.104844   0.235383
H  -0.024757  -1.407928  -0.749772
