14
butane_opt
C  -3.913539   0.251575  -0.017645
C  -2.706925  -0.594860   0.088655
H  -4.813397  -0.320622  -0.100011
H  -3.837069   0.885302  -0.978138
H  -4.062555   0.914254   0.828103
C  -1.426472   0.177895   0.063364
H  -2.710328  -1.305196  -0.815469
H  -2.752637  -1.215058   0.995292
C  -0.154463  -0.702357  -0.003183
H  -1.345228   0.966115   0.958520
H  -1.415250   0.759267  -0.832810
H  -0.101975  -1.349120   0.895201
H   0.708686  -0.111378  -0.251137
H  -0.262036  -1.288192  -0.832450
