14
butane_opt
C  -3.928381   0.248976  -0.049923
C  -2.716132  -0.584767   0.091849
H  -4.835945  -0.313861  -0.035601
H  -3.830115   0.875997  -0.937238
H  -3.921396   0.845374   0.767316
C  -1.406407   0.187995   0.098257
H  -2.712849  -1.225082  -0.724034
H  -2.754075  -1.229361   1.025581
C  -0.163621  -0.703876  -0.026770
H  -1.437087   0.875411   0.967733
H  -1.478714   0.767684  -0.794220
H   0.073185  -1.360002   0.900144
H   0.764752  -0.129465  -0.166770
H  -0.332852  -1.351886  -0.923346
