butane_opt
 OpenBabel08242015413D

 14 13  0  0  0  0  0  0  0  0999 V2000
   -3.9652    0.2507   -0.0286 C   0  0  0  0  0  0  0  0  0  0  0  0
   -2.7026   -0.6137    0.0677 C   0  0  0  0  0  0  0  0  0  0  0  0
   -4.8541   -0.3369    0.2789 H   0  0  0  0  0  0  0  0  0  0  0  0
   -4.0998    1.1617   -1.0527 H   0  0  0  0  0  0  0  0  0  0  0  0
   -3.8839    0.6391    0.6635 H   0  0  0  0  0  0  0  0  0  0  0  0
   -1.3879    0.2120    0.0775 C   0  0  0  0  0  0  0  0  0  0  0  0
   -2.6380   -1.2968   -0.7569 H   0  0  0  0  0  0  0  0  0  0  0  0
   -2.8206   -1.2074    0.9172 H   0  0  0  0  0  0  0  0  0  0  0  0
   -0.1560   -0.6990   -0.0087 C   0  0  0  0  0  0  0  0  0  0  0  0
   -1.3657    0.9331    0.9372 H   0  0  0  0  0  0  0  0  0  0  0  0
   -1.4253    0.7630   -0.7591 H   0  0  0  0  0  0  0  0  0  0  0  0
   -0.0124   -1.2535    0.8532 H   0  0  0  0  0  0  0  0  0  0  0  0
    0.7056   -0.1347    0.0222 H   0  0  0  0  0  0  0  0  0  0  0  0
   -0.0937   -1.5389   -0.9949 H   0  0  0  0  0  0  0  0  0  0  0  0
  1  2  1  0  0  0  0
  1  3  1  0  0  0  0
  1  5  1  0  0  0  0
  2  6  1  0  0  0  0
  2  8  1  0  0  0  0
  4  1  1  0  0  0  0
  6 10  1  0  0  0  0
  7  2  1  0  0  0  0
  9 13  1  0  0  0  0
  9  6  1  0  0  0  0
  9 12  1  0  0  0  0
 11  6  1  0  0  0  0
 14  9  1  0  0  0  0
M  END
$$$$
