14
butane_opt
C  -3.953524   0.260564  -0.026984
C  -2.707985  -0.628842   0.068999
H  -4.862805  -0.298447   0.181756
H  -3.966184   1.038194  -1.040577
H  -3.888210   0.796290   0.737902
C  -1.410389   0.202785   0.064752
H  -2.744932  -1.246367  -0.776789
H  -2.730523  -1.312650   1.036524
C  -0.148579  -0.703408  -0.012872
H  -1.351460   0.903118   0.980948
H  -1.385899   0.852047  -0.805371
H  -0.042911  -1.162339   0.800112
H   0.741348  -0.153507   0.113338
H  -0.149065  -1.464236  -0.942251
