butane_opt
 OpenBabel08242015413D

 14 13  0  0  0  0  0  0  0  0999 V2000
   -3.9646    0.2857   -0.0110 C   0  0  0  0  0  0  0  0  0  0  0  0
   -2.6944   -0.6434    0.1028 C   0  0  0  0  0  0  0  0  0  0  0  0
   -4.8620   -0.2726   -0.1370 H   0  0  0  0  0  0  0  0  0  0  0  0
   -3.8773    0.8169   -0.9383 H   0  0  0  0  0  0  0  0  0  0  0  0
   -4.1250    0.9944    0.8550 H   0  0  0  0  0  0  0  0  0  0  0  0
   -1.3853    0.1840    0.0366 C   0  0  0  0  0  0  0  0  0  0  0  0
   -2.7303   -1.3471   -0.7784 H   0  0  0  0  0  0  0  0  0  0  0  0
   -2.7140   -1.2954    1.0380 H   0  0  0  0  0  0  0  0  0  0  0  0
   -0.1737   -0.6893   -0.0071 C   0  0  0  0  0  0  0  0  0  0  0  0
   -1.2503    0.8188    0.8737 H   0  0  0  0  0  0  0  0  0  0  0  0
   -1.3860    0.8837   -0.9020 H   0  0  0  0  0  0  0  0  0  0  0  0
   -0.1757   -1.1851    0.7908 H   0  0  0  0  0  0  0  0  0  0  0  0
    0.7630   -0.1008    0.0734 H   0  0  0  0  0  0  0  0  0  0  0  0
   -0.0547   -1.4247   -0.8939 H   0  0  0  0  0  0  0  0  0  0  0  0
  1  2  1  0  0  0  0
  1  5  1  0  0  0  0
  2  8  1  0  0  0  0
  3  1  1  0  0  0  0
  4  1  1  0  0  0  0
  6  2  1  0  0  0  0
  6 10  1  0  0  0  0
  7  2  1  0  0  0  0
  9  6  1  0  0  0  0
  9 13  1  0  0  0  0
  9 12  1  0  0  0  0
 11  6  1  0  0  0  0
 14  9  1  0  0  0  0
M  END
$$$$
