butane_opt
 OpenBabel08242015413D

 14 13  0  0  0  0  0  0  0  0999 V2000
   -3.9534    0.2628   -0.0369 C   0  0  0  0  0  0  0  0  0  0  0  0
   -2.7115   -0.6107    0.1129 C   0  0  0  0  0  0  0  0  0  0  0  0
   -4.8396   -0.3181   -0.0197 H   0  0  0  0  0  0  0  0  0  0  0  0
   -3.9608    0.9249   -0.9785 H   0  0  0  0  0  0  0  0  0  0  0  0
   -4.0496    0.8497    0.8254 H   0  0  0  0  0  0  0  0  0  0  0  0
   -1.3995    0.1828    0.0389 C   0  0  0  0  0  0  0  0  0  0  0  0
   -2.7392   -1.2479   -0.7165 H   0  0  0  0  0  0  0  0  0  0  0  0
   -2.7990   -1.3181    1.1028 H   0  0  0  0  0  0  0  0  0  0  0  0
   -0.1225   -0.6914   -0.0148 C   0  0  0  0  0  0  0  0  0  0  0  0
   -1.2941    0.9280    0.9418 H   0  0  0  0  0  0  0  0  0  0  0  0
   -1.5583    0.7893   -0.8510 H   0  0  0  0  0  0  0  0  0  0  0  0
   -0.2278   -1.0878    0.7495 H   0  0  0  0  0  0  0  0  0  0  0  0
    0.7360   -0.1539    0.1448 H   0  0  0  0  0  0  0  0  0  0  0  0
   -0.0413   -1.5651   -0.9866 H   0  0  0  0  0  0  0  0  0  0  0  0
  1  3  1  0  0  0  0
  1  2  1  0  0  0  0
  1  5  1  0  0  0  0
  2  8  1  0  0  0  0
  4  1  1  0  0  0  0
  6  2  1  0  0  0  0
  6 10  1  0  0  0  0
  7  2  1  0  0  0  0
  9  6  1  0  0  0  0
  9 13  1  0  0  0  0
  9 12  1  0  0  0  0
 11  6  1  0  0  0  0
 14  9  1  0  0  0  0
M  END
$$$$
