butane_opt
 OpenBabel08242015413D

 14 13  0  0  0  0  0  0  0  0999 V2000
   -3.9483    0.2704    0.0337 C   0  0  0  0  0  0  0  0  0  0  0  0
   -2.6909   -0.6146    0.0428 C   0  0  0  0  0  0  0  0  0  0  0  0
   -4.8640   -0.2911   -0.1771 H   0  0  0  0  0  0  0  0  0  0  0  0
   -3.8985    0.7001   -0.7607 H   0  0  0  0  0  0  0  0  0  0  0  0
   -4.0022    1.1357    0.9981 H   0  0  0  0  0  0  0  0  0  0  0  0
   -1.4012    0.1653   -0.0286 C   0  0  0  0  0  0  0  0  0  0  0  0
   -2.7137   -1.2129   -0.7861 H   0  0  0  0  0  0  0  0  0  0  0  0
   -2.6749   -1.2773    0.9875 H   0  0  0  0  0  0  0  0  0  0  0  0
   -0.1777   -0.6854    0.0474 C   0  0  0  0  0  0  0  0  0  0  0  0
   -1.3833    0.8324    0.7909 H   0  0  0  0  0  0  0  0  0  0  0  0
   -1.2739    0.7576   -0.9384 H   0  0  0  0  0  0  0  0  0  0  0  0
   -0.2008   -1.3322    0.9906 H   0  0  0  0  0  0  0  0  0  0  0  0
    0.7891   -0.0491    0.0293 H   0  0  0  0  0  0  0  0  0  0  0  0
   -0.1854   -1.3699   -0.8242 H   0  0  0  0  0  0  0  0  0  0  0  0
  1  2  1  0  0  0  0
  1  5  1  0  0  0  0
  2  8  1  0  0  0  0
  3  1  1  0  0  0  0
  4  1  1  0  0  0  0
  6  2  1  0  0  0  0
  6  9  1  0  0  0  0
  6 10  1  0  0  0  0
  7  2  1  0  0  0  0
  9 12  1  0  0  0  0
 11  6  1  0  0  0  0
 13  9  1  0  0  0  0
 14  9  1  0  0  0  0
M  END
$$$$
