14
butane_opt
C  -3.958290   0.256483  -0.043408
C  -2.713203  -0.606976   0.076787
H  -4.906891  -0.420721   0.084648
H  -3.962384   0.954850  -0.995704
H  -3.961163   0.885266   0.819049
C  -1.417199   0.208817   0.086654
H  -2.718847  -1.248296  -0.776210
H  -2.752797  -1.311977   1.004302
C  -0.136699  -0.713130  -0.027963
H  -1.264506   0.975956   0.988065
H  -1.428562   0.759316  -0.738499
H   0.034166  -1.399433   0.904215
H   0.778198  -0.140724  -0.098439
H  -0.128550  -1.266703  -0.844871
