butane_opt
 OpenBabel08242015413D

 14 13  0  0  0  0  0  0  0  0999 V2000
   -3.9352    0.2504   -0.0084 C   0  0  0  0  0  0  0  0  0  0  0  0
   -2.6818   -0.6106    0.0810 C   0  0  0  0  0  0  0  0  0  0  0  0
   -4.8728   -0.3717   -0.0302 H   0  0  0  0  0  0  0  0  0  0  0  0
   -3.9120    0.9220   -0.9680 H   0  0  0  0  0  0  0  0  0  0  0  0
   -4.0354    0.9533    0.8591 H   0  0  0  0  0  0  0  0  0  0  0  0
   -1.4010    0.1870    0.0329 C   0  0  0  0  0  0  0  0  0  0  0  0
   -2.7268   -1.3282   -0.7976 H   0  0  0  0  0  0  0  0  0  0  0  0
   -2.6674   -1.1852    0.9770 H   0  0  0  0  0  0  0  0  0  0  0  0
   -0.1737   -0.6905    0.0018 C   0  0  0  0  0  0  0  0  0  0  0  0
   -1.4083    0.8807    0.9112 H   0  0  0  0  0  0  0  0  0  0  0  0
   -1.4405    0.8445   -0.8660 H   0  0  0  0  0  0  0  0  0  0  0  0
   -0.0640   -1.3048    0.9065 H   0  0  0  0  0  0  0  0  0  0  0  0
    0.6509   -0.1257    0.0284 H   0  0  0  0  0  0  0  0  0  0  0  0
   -0.2289   -1.4083   -0.8699 H   0  0  0  0  0  0  0  0  0  0  0  0
  1  2  1  0  0  0  0
  1  5  1  0  0  0  0
  2  8  1  0  0  0  0
  3  1  1  0  0  0  0
  4  1  1  0  0  0  0
  6  2  1  0  0  0  0
  6 10  1  0  0  0  0
  7  2  1  0  0  0  0
  9 13  1  0  0  0  0
  9  6  1  0  0  0  0
  9 12  1  0  0  0  0
 11  6  1  0  0  0  0
 14  9  1  0  0  0  0
M  END
$$$$
