14
butane_opt
C  -3.924584   0.236633  -0.054350
C  -2.695726  -0.587925   0.114706
H  -4.833516  -0.377027  -0.118742
H  -3.934106   0.836032  -0.940523
H  -3.950616   0.904572   0.798657
C  -1.434547   0.224465   0.089126
H  -2.697632  -1.257870  -0.721051
H  -2.761989  -1.214186   0.989169
C  -0.164241  -0.722051  -0.032072
H  -1.348368   0.851999   0.948656
H  -1.467609   0.844949  -0.755823
H   0.021188  -1.373391   0.877200
H   0.816445  -0.084691  -0.168464
H  -0.235422  -1.408687  -0.883974
