butane_opt
 OpenBabel08242015413D

 14 13  0  0  0  0  0  0  0  0999 V2000
   -3.9199    0.2519    0.0566 C   0  0  0  0  0  0  0  0  0  0  0  0
   -2.7016   -0.5931   -0.0028 C   0  0  0  0  0  0  0  0  0  0  0  0
   -4.8611   -0.4122   -0.0376 H   0  0  0  0  0  0  0  0  0  0  0  0
   -3.9062    0.6572   -0.6986 H   0  0  0  0  0  0  0  0  0  0  0  0
   -3.9054    1.1226    1.0886 H   0  0  0  0  0  0  0  0  0  0  0  0
   -1.4271    0.1974   -0.0566 C   0  0  0  0  0  0  0  0  0  0  0  0
   -2.7715   -1.2602   -0.8608 H   0  0  0  0  0  0  0  0  0  0  0  0
   -2.7226   -1.2753    0.9010 H   0  0  0  0  0  0  0  0  0  0  0  0
   -0.1666   -0.7121    0.0790 C   0  0  0  0  0  0  0  0  0  0  0  0
   -1.4581    0.8842    0.7748 H   0  0  0  0  0  0  0  0  0  0  0  0
   -1.3016    0.8908   -0.9812 H   0  0  0  0  0  0  0  0  0  0  0  0
   -0.1223   -1.3779    1.0060 H   0  0  0  0  0  0  0  0  0  0  0  0
    0.6808   -0.1491    0.0207 H   0  0  0  0  0  0  0  0  0  0  0  0
   -0.0652   -1.2928   -0.6617 H   0  0  0  0  0  0  0  0  0  0  0  0
  1  5  1  0  0  0  0
  2  1  1  0  0  0  0
  2  8  1  0  0  0  0
  3  1  1  0  0  0  0
  4  1  1  0  0  0  0
  6  2  1  0  0  0  0
  6  9  1  0  0  0  0
  6 10  1  0  0  0  0
  7  2  1  0  0  0  0
  9 12  1  0  0  0  0
 11  6  1  0  0  0  0
 13  9  1  0  0  0  0
 14  9  1  0  0  0  0
M  END
$$$$
