14
butane_opt
C  -3.919894   0.251922   0.056586
C  -2.701570  -0.593064  -0.002825
H  -4.861065  -0.412165  -0.037618
H  -3.906180   0.657156  -0.698583
H  -3.905437   1.122554   1.088639
C  -1.427075   0.197376  -0.056587
H  -2.771465  -1.260156  -0.860817
H  -2.722641  -1.275263   0.900961
C  -0.166553  -0.712102   0.078997
H  -1.458089   0.884230   0.774771
H  -1.301573   0.890810  -0.981197
H  -0.122327  -1.377898   1.005972
H   0.680766  -0.149059   0.020696
H  -0.065185  -1.292754  -0.661743
