14
butane_opt
C  -3.942617   0.247620  -0.020398
C  -2.697241  -0.603083   0.059938
H  -4.818359  -0.348782  -0.086135
H  -3.867171   0.815667  -0.924972
H  -3.947075   0.934328   0.826374
C  -1.410717   0.218980   0.073362
H  -2.691911  -1.223879  -0.759748
H  -2.644400  -1.298832   1.046867
C  -0.174247  -0.712326  -0.013310
H  -1.392419   0.894390   0.929891
H  -1.417886   0.764638  -0.738633
H   0.014906  -1.413703   0.931850
H   0.721746  -0.155034  -0.187714
H  -0.273525  -1.250503  -0.787792
