14
butane_opt
C  -3.942890   0.277377   0.002625
C  -2.673319  -0.633225   0.048250
H  -4.867574  -0.293226   0.106752
H  -4.008346   0.927525  -0.893257
H  -3.984084   0.947953   0.857091
C  -1.412156   0.162134   0.017910
H  -2.635532  -1.251119  -0.727921
H  -2.774937  -1.356318   0.983317
C  -0.161730  -0.679697   0.016154
H  -1.389107   0.847351   0.883477
H  -1.399654   0.823981  -0.900480
H  -0.286696  -1.133375   0.824885
H   0.784102  -0.038214   0.148731
H  -0.177989  -1.462555  -0.870705
