butane_opt
 OpenBabel08242015413D

 14 13  0  0  0  0  0  0  0  0999 V2000
   -3.9429    0.2774    0.0026 C   0  0  0  0  0  0  0  0  0  0  0  0
   -2.6733   -0.6332    0.0483 C   0  0  0  0  0  0  0  0  0  0  0  0
   -4.8676   -0.2932    0.1068 H   0  0  0  0  0  0  0  0  0  0  0  0
   -4.0083    0.9275   -0.8933 H   0  0  0  0  0  0  0  0  0  0  0  0
   -3.9841    0.9480    0.8571 H   0  0  0  0  0  0  0  0  0  0  0  0
   -1.4122    0.1621    0.0179 C   0  0  0  0  0  0  0  0  0  0  0  0
   -2.6355   -1.2511   -0.7279 H   0  0  0  0  0  0  0  0  0  0  0  0
   -2.7749   -1.3563    0.9833 H   0  0  0  0  0  0  0  0  0  0  0  0
   -0.1617   -0.6797    0.0162 C   0  0  0  0  0  0  0  0  0  0  0  0
   -1.3891    0.8474    0.8835 H   0  0  0  0  0  0  0  0  0  0  0  0
   -1.3997    0.8240   -0.9005 H   0  0  0  0  0  0  0  0  0  0  0  0
   -0.2867   -1.1334    0.8249 H   0  0  0  0  0  0  0  0  0  0  0  0
    0.7841   -0.0382    0.1487 H   0  0  0  0  0  0  0  0  0  0  0  0
   -0.1780   -1.4626   -0.8707 H   0  0  0  0  0  0  0  0  0  0  0  0
  1  2  1  0  0  0  0
  1  3  1  0  0  0  0
  1  5  1  0  0  0  0
  2  8  1  0  0  0  0
  4  1  1  0  0  0  0
  6  2  1  0  0  0  0
  6 10  1  0  0  0  0
  7  2  1  0  0  0  0
  9  6  1  0  0  0  0
  9 13  1  0  0  0  0
  9 12  1  0  0  0  0
 11  6  1  0  0  0  0
 14  9  1  0  0  0  0
M  END
$$$$
