butane_opt
 OpenBabel08242015413D

 14 13  0  0  0  0  0  0  0  0999 V2000
   -3.9546    0.2468    0.0605 C   0  0  0  0  0  0  0  0  0  0  0  0
   -2.7355   -0.5979   -0.0174 C   0  0  0  0  0  0  0  0  0  0  0  0
   -4.8277   -0.3762   -0.0394 H   0  0  0  0  0  0  0  0  0  0  0  0
   -3.9025    0.7626   -0.7760 H   0  0  0  0  0  0  0  0  0  0  0  0
   -3.9179    1.0628    1.0122 H   0  0  0  0  0  0  0  0  0  0  0  0
   -1.3958    0.2085   -0.0024 C   0  0  0  0  0  0  0  0  0  0  0  0
   -2.8253   -1.3354   -0.9458 H   0  0  0  0  0  0  0  0  0  0  0  0
   -2.7366   -1.1853    0.8526 H   0  0  0  0  0  0  0  0  0  0  0  0
   -0.1224   -0.7206    0.0773 C   0  0  0  0  0  0  0  0  0  0  0  0
   -1.5476    0.8623    0.7848 H   0  0  0  0  0  0  0  0  0  0  0  0
   -1.3331    0.9321   -0.9935 H   0  0  0  0  0  0  0  0  0  0  0  0
   -0.0322   -1.4925    1.0547 H   0  0  0  0  0  0  0  0  0  0  0  0
    0.7451   -0.1748   -0.2513 H   0  0  0  0  0  0  0  0  0  0  0  0
   -0.1435   -1.1681   -0.6548 H   0  0  0  0  0  0  0  0  0  0  0  0
  1  5  1  0  0  0  0
  2  6  1  0  0  0  0
  2  1  1  0  0  0  0
  2  8  1  0  0  0  0
  3  1  1  0  0  0  0
  4  1  1  0  0  0  0
  6  9  1  0  0  0  0
  6 10  1  0  0  0  0
  7  2  1  0  0  0  0
  9 12  1  0  0  0  0
 11  6  1  0  0  0  0
 13  9  1  0  0  0  0
 14  9  1  0  0  0  0
M  END
$$$$
