butane_opt
 OpenBabel08242015413D

 14 13  0  0  0  0  0  0  0  0999 V2000
   -3.9426    0.2476   -0.0204 C   0  0  0  0  0  0  0  0  0  0  0  0
   -2.6972   -0.6031    0.0599 C   0  0  0  0  0  0  0  0  0  0  0  0
   -4.8184   -0.3488   -0.0861 H   0  0  0  0  0  0  0  0  0  0  0  0
   -3.8672    0.8157   -0.9250 H   0  0  0  0  0  0  0  0  0  0  0  0
   -3.9471    0.9343    0.8264 H   0  0  0  0  0  0  0  0  0  0  0  0
   -1.4107    0.2190    0.0734 C   0  0  0  0  0  0  0  0  0  0  0  0
   -2.6919   -1.2239   -0.7597 H   0  0  0  0  0  0  0  0  0  0  0  0
   -2.6444   -1.2988    1.0469 H   0  0  0  0  0  0  0  0  0  0  0  0
   -0.1742   -0.7123   -0.0133 C   0  0  0  0  0  0  0  0  0  0  0  0
   -1.3924    0.8944    0.9299 H   0  0  0  0  0  0  0  0  0  0  0  0
   -1.4179    0.7646   -0.7386 H   0  0  0  0  0  0  0  0  0  0  0  0
    0.0149   -1.4137    0.9318 H   0  0  0  0  0  0  0  0  0  0  0  0
    0.7217   -0.1550   -0.1877 H   0  0  0  0  0  0  0  0  0  0  0  0
   -0.2735   -1.2505   -0.7878 H   0  0  0  0  0  0  0  0  0  0  0  0
  1  2  1  0  0  0  0
  1  5  1  0  0  0  0
  2  6  1  0  0  0  0
  2  8  1  0  0  0  0
  3  1  1  0  0  0  0
  4  1  1  0  0  0  0
  6 10  1  0  0  0  0
  7  2  1  0  0  0  0
  9  6  1  0  0  0  0
  9 12  1  0  0  0  0
 11  6  1  0  0  0  0
 13  9  1  0  0  0  0
 14  9  1  0  0  0  0
M  END
$$$$
