14
butane_opt
C  -3.936133   0.258588   0.065082
C  -2.715057  -0.624563  -0.043159
H  -4.835662  -0.298300   0.334178
H  -4.124373   0.936400  -0.874177
H  -3.842552   0.903313   0.920427
C  -1.405566   0.196616  -0.040459
H  -2.868231  -1.310403  -0.876866
H  -2.738968  -1.148008   0.783685
C  -0.135447  -0.697111   0.088336
H  -1.385534   0.907502   0.832677
H  -1.399278   0.781218  -0.899710
H  -0.188480  -1.414377   1.066631
H   0.701320  -0.155663   0.061574
H  -0.035818  -1.278589  -0.738964
