14
butane_opt
C  -3.956407   0.293811   0.025962
C  -2.700830  -0.648714   0.011532
H  -4.860915  -0.309629   0.007550
H  -4.056180   0.805329  -0.789682
H  -4.019841   1.048499   0.985704
C  -1.388890   0.187480   0.003095
H  -2.771049  -1.440923  -0.914182
H  -2.685731  -1.260018   0.888304
C  -0.161176  -0.683555   0.042328
H  -1.291147   0.897529   0.850502
H  -1.330674   0.754678  -0.857004
H  -0.054516  -1.560630   1.104003
H   0.752137  -0.070887  -0.158531
H  -0.217767  -1.108371  -0.632077
