butane_opt
 OpenBabel08242015413D

 14 13  0  0  0  0  0  0  0  0999 V2000
   -3.9376    0.2395    0.0656 C   0  0  0  0  0  0  0  0  0  0  0  0
   -2.7164   -0.5980   -0.0009 C   0  0  0  0  0  0  0  0  0  0  0  0
   -4.8451   -0.3507   -0.0970 H   0  0  0  0  0  0  0  0  0  0  0  0
   -3.9429    0.7563   -0.7686 H   0  0  0  0  0  0  0  0  0  0  0  0
   -4.0058    1.0588    1.0198 H   0  0  0  0  0  0  0  0  0  0  0  0
   -1.4063    0.2094   -0.0503 C   0  0  0  0  0  0  0  0  0  0  0  0
   -2.7361   -1.2495   -0.8314 H   0  0  0  0  0  0  0  0  0  0  0  0
   -2.6896   -1.1838    0.8464 H   0  0  0  0  0  0  0  0  0  0  0  0
   -0.1502   -0.7052    0.0820 C   0  0  0  0  0  0  0  0  0  0  0  0
   -1.4127    0.9151    0.8171 H   0  0  0  0  0  0  0  0  0  0  0  0
   -1.3100    0.8071   -0.8838 H   0  0  0  0  0  0  0  0  0  0  0  0
   -0.1469   -1.5144    1.0424 H   0  0  0  0  0  0  0  0  0  0  0  0
    0.7225   -0.1831   -0.1186 H   0  0  0  0  0  0  0  0  0  0  0  0
   -0.1096   -1.2885   -0.7285 H   0  0  0  0  0  0  0  0  0  0  0  0
  1  5  1  0  0  0  0
  2  1  1  0  0  0  0
  2  8  1  0  0  0  0
  3  1  1  0  0  0  0
  4  1  1  0  0  0  0
  6  2  1  0  0  0  0
  6  9  1  0  0  0  0
  6 10  1  0  0  0  0
  7  2  1  0  0  0  0
  9 12  1  0  0  0  0
 11  6  1  0  0  0  0
 13  9  1  0  0  0  0
 14  9  1  0  0  0  0
M  END
$$$$
