butane_opt
 OpenBabel08242015413D

 14 13  0  0  0  0  0  0  0  0999 V2000
   -3.9445    0.2779    0.0411 C   0  0  0  0  0  0  0  0  0  0  0  0
   -2.6760   -0.6115   -0.0011 C   0  0  0  0  0  0  0  0  0  0  0  0
   -4.8518   -0.3113    0.1689 H   0  0  0  0  0  0  0  0  0  0  0  0
   -4.0389    0.9350   -0.8622 H   0  0  0  0  0  0  0  0  0  0  0  0
   -3.8921    0.9183    0.8291 H   0  0  0  0  0  0  0  0  0  0  0  0
   -1.3896    0.1534    0.0072 C   0  0  0  0  0  0  0  0  0  0  0  0
   -2.7428   -1.3289   -0.9049 H   0  0  0  0  0  0  0  0  0  0  0  0
   -2.7095   -1.2990    0.9272 H   0  0  0  0  0  0  0  0  0  0  0  0
   -0.1823   -0.6753    0.0469 C   0  0  0  0  0  0  0  0  0  0  0  0
   -1.4321    0.8354    0.8406 H   0  0  0  0  0  0  0  0  0  0  0  0
   -1.2830    0.7711   -0.9236 H   0  0  0  0  0  0  0  0  0  0  0  0
   -0.2141   -1.3174    0.9774 H   0  0  0  0  0  0  0  0  0  0  0  0
    0.6916   -0.1035    0.0481 H   0  0  0  0  0  0  0  0  0  0  0  0
   -0.2364   -1.3034   -0.7896 H   0  0  0  0  0  0  0  0  0  0  0  0
  1  3  1  0  0  0  0
  1  5  1  0  0  0  0
  2  6  1  0  0  0  0
  2  1  1  0  0  0  0
  2  8  1  0  0  0  0
  4  1  1  0  0  0  0
  6  9  1  0  0  0  0
  6 10  1  0  0  0  0
  7  2  1  0  0  0  0
  9 13  1  0  0  0  0
  9 12  1  0  0  0  0
 11  6  1  0  0  0  0
 14  9  1  0  0  0  0
M  END
$$$$
