butane_opt
 OpenBabel08242015413D

 14 13  0  0  0  0  0  0  0  0999 V2000
   -3.9521    0.2706   -0.0159 C   0  0  0  0  0  0  0  0  0  0  0  0
   -2.6942   -0.6151    0.0698 C   0  0  0  0  0  0  0  0  0  0  0  0
   -4.8713   -0.3306   -0.0302 H   0  0  0  0  0  0  0  0  0  0  0  0
   -3.9344    0.8532   -0.9003 H   0  0  0  0  0  0  0  0  0  0  0  0
   -4.0120    0.9547    0.8570 H   0  0  0  0  0  0  0  0  0  0  0  0
   -1.3977    0.1764    0.0345 C   0  0  0  0  0  0  0  0  0  0  0  0
   -2.6893   -1.2245   -0.7278 H   0  0  0  0  0  0  0  0  0  0  0  0
   -2.7289   -1.2794    0.9906 H   0  0  0  0  0  0  0  0  0  0  0  0
   -0.1712   -0.6922    0.0057 C   0  0  0  0  0  0  0  0  0  0  0  0
   -1.3074    0.8797    0.9339 H   0  0  0  0  0  0  0  0  0  0  0  0
   -1.4028    0.7552   -0.7955 H   0  0  0  0  0  0  0  0  0  0  0  0
   -0.0633   -1.3207    0.8932 H   0  0  0  0  0  0  0  0  0  0  0  0
    0.7753   -0.0490   -0.0481 H   0  0  0  0  0  0  0  0  0  0  0  0
   -0.2113   -1.3825   -0.8567 H   0  0  0  0  0  0  0  0  0  0  0  0
  1  2  1  0  0  0  0
  1  5  1  0  0  0  0
  2  8  1  0  0  0  0
  3  1  1  0  0  0  0
  4  1  1  0  0  0  0
  6  2  1  0  0  0  0
  6 10  1  0  0  0  0
  7  2  1  0  0  0  0
  9  6  1  0  0  0  0
  9 12  1  0  0  0  0
 11  6  1  0  0  0  0
 13  9  1  0  0  0  0
 14  9  1  0  0  0  0
M  END
$$$$
