butane_opt
 OpenBabel08242015413D

 14 13  0  0  0  0  0  0  0  0999 V2000
   -3.9441    0.2497    0.0579 C   0  0  0  0  0  0  0  0  0  0  0  0
   -2.7044   -0.6149    0.0082 C   0  0  0  0  0  0  0  0  0  0  0  0
   -4.8383   -0.3843   -0.1502 H   0  0  0  0  0  0  0  0  0  0  0  0
   -3.9130    0.7009   -0.7030 H   0  0  0  0  0  0  0  0  0  0  0  0
   -4.0413    1.1430    1.0890 H   0  0  0  0  0  0  0  0  0  0  0  0
   -1.4167    0.2139   -0.0510 C   0  0  0  0  0  0  0  0  0  0  0  0
   -2.8240   -1.2620   -0.8327 H   0  0  0  0  0  0  0  0  0  0  0  0
   -2.7521   -1.2698    0.9118 H   0  0  0  0  0  0  0  0  0  0  0  0
   -0.1394   -0.7056    0.0675 C   0  0  0  0  0  0  0  0  0  0  0  0
   -1.3819    0.8430    0.7393 H   0  0  0  0  0  0  0  0  0  0  0  0
   -1.4765    0.8891   -0.9420 H   0  0  0  0  0  0  0  0  0  0  0  0
   -0.1138   -1.4085    1.0160 H   0  0  0  0  0  0  0  0  0  0  0  0
    0.7359   -0.1421    0.0669 H   0  0  0  0  0  0  0  0  0  0  0  0
    0.0371   -1.3039   -0.7127 H   0  0  0  0  0  0  0  0  0  0  0  0
  1  5  1  0  0  0  0
  2  1  1  0  0  0  0
  2  8  1  0  0  0  0
  3  1  1  0  0  0  0
  4  1  1  0  0  0  0
  6  2  1  0  0  0  0
  6  9  1  0  0  0  0
  6 10  1  0  0  0  0
  7  2  1  0  0  0  0
  9 12  1  0  0  0  0
 11  6  1  0  0  0  0
 13  9  1  0  0  0  0
 14  9  1  0  0  0  0
M  END
$$$$
