butane_opt
 OpenBabel08242015413D

 14 13  0  0  0  0  0  0  0  0999 V2000
   -3.9423    0.2484    0.0840 C   0  0  0  0  0  0  0  0  0  0  0  0
   -2.6816   -0.6124   -0.0183 C   0  0  0  0  0  0  0  0  0  0  0  0
   -4.8341   -0.3633    0.1195 H   0  0  0  0  0  0  0  0  0  0  0  0
   -3.9637    0.8731   -0.8577 H   0  0  0  0  0  0  0  0  0  0  0  0
   -3.8648    0.9814    0.9875 H   0  0  0  0  0  0  0  0  0  0  0  0
   -1.4210    0.2067   -0.0694 C   0  0  0  0  0  0  0  0  0  0  0  0
   -2.7972   -1.3348   -0.8592 H   0  0  0  0  0  0  0  0  0  0  0  0
   -2.5563   -1.1865    0.8240 H   0  0  0  0  0  0  0  0  0  0  0  0
   -0.1800   -0.7036    0.1036 C   0  0  0  0  0  0  0  0  0  0  0  0
   -1.4226    0.7802    0.6951 H   0  0  0  0  0  0  0  0  0  0  0  0
   -1.3262    0.8942   -1.0098 H   0  0  0  0  0  0  0  0  0  0  0  0
   -0.2751   -1.1880    0.9475 H   0  0  0  0  0  0  0  0  0  0  0  0
    0.7072   -0.1530    0.1998 H   0  0  0  0  0  0  0  0  0  0  0  0
    0.0162   -1.4481   -0.8266 H   0  0  0  0  0  0  0  0  0  0  0  0
  1  3  1  0  0  0  0
  1  5  1  0  0  0  0
  2  1  1  0  0  0  0
  2  8  1  0  0  0  0
  4  1  1  0  0  0  0
  6  2  1  0  0  0  0
  6  9  1  0  0  0  0
  6 10  1  0  0  0  0
  7  2  1  0  0  0  0
  9 13  1  0  0  0  0
  9 12  1  0  0  0  0
 11  6  1  0  0  0  0
 14  9  1  0  0  0  0
M  END
$$$$
