14
butane_opt
C  -3.967848   0.287756   0.058056
C  -2.707970  -0.638168  -0.028166
H  -4.835495  -0.265691   0.071175
H  -4.061198   0.946699  -0.815202
H  -3.972575   1.001140   0.946029
C  -1.378892   0.155878   0.005699
H  -2.795154  -1.426888  -0.942060
H  -2.710361  -1.252511   0.829436
C  -0.151473  -0.670503   0.071841
H  -1.415012   0.752650   0.786170
H  -1.378238   0.850084  -0.953779
H  -0.010064  -1.446251   1.061313
H   0.841658  -0.022422  -0.110781
H  -0.240007  -1.194471  -0.699817
