butane_opt
 OpenBabel08242015413D

 14 13  0  0  0  0  0  0  0  0999 V2000
   -3.9678    0.2878    0.0581 C   0  0  0  0  0  0  0  0  0  0  0  0
   -2.7080   -0.6382   -0.0282 C   0  0  0  0  0  0  0  0  0  0  0  0
   -4.8355   -0.2657    0.0712 H   0  0  0  0  0  0  0  0  0  0  0  0
   -4.0612    0.9467   -0.8152 H   0  0  0  0  0  0  0  0  0  0  0  0
   -3.9726    1.0011    0.9460 H   0  0  0  0  0  0  0  0  0  0  0  0
   -1.3789    0.1559    0.0057 C   0  0  0  0  0  0  0  0  0  0  0  0
   -2.7952   -1.4269   -0.9421 H   0  0  0  0  0  0  0  0  0  0  0  0
   -2.7104   -1.2525    0.8294 H   0  0  0  0  0  0  0  0  0  0  0  0
   -0.1515   -0.6705    0.0718 C   0  0  0  0  0  0  0  0  0  0  0  0
   -1.4150    0.7527    0.7862 H   0  0  0  0  0  0  0  0  0  0  0  0
   -1.3782    0.8501   -0.9538 H   0  0  0  0  0  0  0  0  0  0  0  0
   -0.0101   -1.4463    1.0613 H   0  0  0  0  0  0  0  0  0  0  0  0
    0.8417   -0.0224   -0.1108 H   0  0  0  0  0  0  0  0  0  0  0  0
   -0.2400   -1.1945   -0.6998 H   0  0  0  0  0  0  0  0  0  0  0  0
  1  3  1  0  0  0  0
  1  5  1  0  0  0  0
  2  6  1  0  0  0  0
  2  1  1  0  0  0  0
  2  8  1  0  0  0  0
  4  1  1  0  0  0  0
  6  9  1  0  0  0  0
  6 10  1  0  0  0  0
  7  2  1  0  0  0  0
  9 12  1  0  0  0  0
 11  6  1  0  0  0  0
 13  9  1  0  0  0  0
 14  9  1  0  0  0  0
M  END
$$$$
