14
butane_opt
C  -3.947583   0.258467  -0.034552
C  -2.717852  -0.600448   0.086048
H  -4.857921  -0.378548   0.138946
H  -4.000077   0.978784  -0.974581
H  -4.030312   0.802832   0.727243
C  -1.388440   0.205888   0.069307
H  -2.673633  -1.282721  -0.766046
H  -2.771188  -1.278795   0.971573
C  -0.152628  -0.710851  -0.029559
H  -1.321054   0.944541   0.974280
H  -1.381000   0.738467  -0.731907
H  -0.119058  -1.295168   0.886650
H   0.718686  -0.160124  -0.022818
H  -0.092255  -1.381614  -0.869952
