butane_opt
 OpenBabel08242015413D

 14 13  0  0  0  0  0  0  0  0999 V2000
   -3.9493    0.2440    0.0191 C   0  0  0  0  0  0  0  0  0  0  0  0
   -2.7171   -0.6048    0.0365 C   0  0  0  0  0  0  0  0  0  0  0  0
   -4.8156   -0.3011   -0.0582 H   0  0  0  0  0  0  0  0  0  0  0  0
   -3.9202    0.6904   -0.7928 H   0  0  0  0  0  0  0  0  0  0  0  0
   -4.0224    1.1442    1.0166 H   0  0  0  0  0  0  0  0  0  0  0  0
   -1.3950    0.2121   -0.0048 C   0  0  0  0  0  0  0  0  0  0  0  0
   -2.7056   -1.2605   -0.7918 H   0  0  0  0  0  0  0  0  0  0  0  0
   -2.7671   -1.3053    1.0194 H   0  0  0  0  0  0  0  0  0  0  0  0
   -0.1500   -0.7070    0.0343 C   0  0  0  0  0  0  0  0  0  0  0  0
   -1.4421    0.8368    0.8017 H   0  0  0  0  0  0  0  0  0  0  0  0
   -1.3581    0.8696   -0.9220 H   0  0  0  0  0  0  0  0  0  0  0  0
   -0.1200   -1.4072    0.9496 H   0  0  0  0  0  0  0  0  0  0  0  0
    0.7234   -0.1040    0.0351 H   0  0  0  0  0  0  0  0  0  0  0  0
   -0.0547   -1.3678   -0.8110 H   0  0  0  0  0  0  0  0  0  0  0  0
  1  2  1  0  0  0  0
  1  5  1  0  0  0  0
  2  8  1  0  0  0  0
  3  1  1  0  0  0  0
  4  1  1  0  0  0  0
  6  9  1  0  0  0  0
  6  2  1  0  0  0  0
  6 10  1  0  0  0  0
  7  2  1  0  0  0  0
  9 13  1  0  0  0  0
  9 12  1  0  0  0  0
 11  6  1  0  0  0  0
 14  9  1  0  0  0  0
M  END
$$$$
