14
butane_opt
C  -3.941375   0.247581   0.046185
C  -2.701438  -0.595215  -0.010532
H  -4.894640  -0.409834   0.263367
H  -4.074507   1.002402  -0.963977
H  -3.799238   0.797496   0.838945
C  -1.421658   0.205485   0.018460
H  -2.722545  -1.318180  -0.950080
H  -2.837682  -1.175058   0.857308
C  -0.132456  -0.712050   0.054146
H  -1.477608   0.852316   0.832619
H  -1.413890   0.868786  -0.913507
H  -0.126919  -1.352830   0.953925
H   0.772034  -0.100937  -0.020569
H  -0.079538  -1.381746  -0.765681
