butane_opt
 OpenBabel08242015413D

 14 13  0  0  0  0  0  0  0  0999 V2000
   -3.9278    0.2686    0.0889 C   0  0  0  0  0  0  0  0  0  0  0  0
   -2.6823   -0.6371   -0.0485 C   0  0  0  0  0  0  0  0  0  0  0  0
   -4.8252   -0.2852    0.2299 H   0  0  0  0  0  0  0  0  0  0  0  0
   -4.1664    1.0411   -0.8914 H   0  0  0  0  0  0  0  0  0  0  0  0
   -3.8608    0.8526    0.9339 H   0  0  0  0  0  0  0  0  0  0  0  0
   -1.4010    0.1744   -0.0501 C   0  0  0  0  0  0  0  0  0  0  0  0
   -2.7761   -1.4236   -0.9836 H   0  0  0  0  0  0  0  0  0  0  0  0
   -2.6277   -1.1761    0.7710 H   0  0  0  0  0  0  0  0  0  0  0  0
   -0.1749   -0.6771    0.1044 C   0  0  0  0  0  0  0  0  0  0  0  0
   -1.4784    0.8626    0.8067 H   0  0  0  0  0  0  0  0  0  0  0  0
   -1.4022    0.8774   -0.9342 H   0  0  0  0  0  0  0  0  0  0  0  0
   -0.2391   -1.3581    1.0324 H   0  0  0  0  0  0  0  0  0  0  0  0
    0.7663   -0.1031    0.0467 H   0  0  0  0  0  0  0  0  0  0  0  0
   -0.1746   -1.2961   -0.7229 H   0  0  0  0  0  0  0  0  0  0  0  0
  1  3  1  0  0  0  0
  1  5  1  0  0  0  0
  2  1  1  0  0  0  0
  2  8  1  0  0  0  0
  4  1  1  0  0  0  0
  6  2  1  0  0  0  0
  6  9  1  0  0  0  0
  6 10  1  0  0  0  0
  7  2  1  0  0  0  0
  9 12  1  0  0  0  0
 11  6  1  0  0  0  0
 13  9  1  0  0  0  0
 14  9  1  0  0  0  0
M  END
$$$$
