14
butane_opt
C  -3.931201   0.268666  -0.020756
C  -2.689989  -0.615431   0.087416
H  -4.865375  -0.295625   0.075804
H  -3.976855   1.008866  -0.986232
H  -3.942766   0.847529   0.812971
C  -1.414946   0.160136   0.021842
H  -2.672420  -1.215530  -0.706375
H  -2.686940  -1.360116   1.123163
C  -0.167203  -0.675751  -0.000276
H  -1.457248   0.871219   0.898592
H  -1.347511   0.725137  -0.829488
H  -0.260806  -1.026234   0.733999
H   0.753596  -0.071645   0.245759
H  -0.124553  -1.610266  -1.040666
