butane_opt
 OpenBabel08242015413D

 14 13  0  0  0  0  0  0  0  0999 V2000
   -3.9646    0.2975    0.0447 C   0  0  0  0  0  0  0  0  0  0  0  0
   -2.6897   -0.6357   -0.0018 C   0  0  0  0  0  0  0  0  0  0  0  0
   -4.9124   -0.3137    0.1644 H   0  0  0  0  0  0  0  0  0  0  0  0
   -4.1638    0.8887   -0.8658 H   0  0  0  0  0  0  0  0  0  0  0  0
   -3.8711    0.8162    0.8289 H   0  0  0  0  0  0  0  0  0  0  0  0
   -1.3831    0.1722   -0.0002 C   0  0  0  0  0  0  0  0  0  0  0  0
   -2.6922   -1.3730   -0.9098 H   0  0  0  0  0  0  0  0  0  0  0  0
   -2.7686   -1.2412    0.8502 H   0  0  0  0  0  0  0  0  0  0  0  0
   -0.1640   -0.6833    0.0631 C   0  0  0  0  0  0  0  0  0  0  0  0
   -1.3359    0.8601    0.8310 H   0  0  0  0  0  0  0  0  0  0  0  0
   -1.3251    0.8477   -0.9144 H   0  0  0  0  0  0  0  0  0  0  0  0
   -0.1358   -1.3332    0.9887 H   0  0  0  0  0  0  0  0  0  0  0  0
    0.7673   -0.0837   -0.0208 H   0  0  0  0  0  0  0  0  0  0  0  0
   -0.1721   -1.3466   -0.7842 H   0  0  0  0  0  0  0  0  0  0  0  0
  1  3  1  0  0  0  0
  1  5  1  0  0  0  0
  2  6  1  0  0  0  0
  2  1  1  0  0  0  0
  2  8  1  0  0  0  0
  4  1  1  0  0  0  0
  6  9  1  0  0  0  0
  6 10  1  0  0  0  0
  7  2  1  0  0  0  0
  9 12  1  0  0  0  0
 11  6  1  0  0  0  0
 13  9  1  0  0  0  0
 14  9  1  0  0  0  0
M  END
$$$$
