14
butane_opt
C  -3.912185   0.252274   0.073701
C  -2.705471  -0.609264  -0.034143
H  -4.819650  -0.339710   0.232392
H  -4.131912   0.907030  -0.816863
H  -3.799813   0.831574   0.902123
C  -1.424560   0.215908  -0.046860
H  -2.727632  -1.245202  -0.896620
H  -2.745281  -1.203868   0.836118
C  -0.162460  -0.717362   0.085008
H  -1.456378   0.874046   0.785493
H  -1.315689   0.817655  -0.927299
H  -0.254058  -1.332162   0.996906
H   0.741304  -0.062540   0.132566
H  -0.048432  -1.423503  -0.751927
