14
butane_opt
C  -3.920180   0.250138   0.057781
C  -2.688405  -0.596690   0.010344
H  -4.898010  -0.347340  -0.164719
H  -3.882005   0.695551  -0.698566
H  -4.032257   1.055598   1.032556
C  -1.417534   0.201240  -0.033647
H  -2.747657  -1.301683  -0.847344
H  -2.737496  -1.243084   0.882212
C  -0.169208  -0.715770   0.071767
H  -1.481976   0.820375   0.776348
H  -1.349016   0.925965  -0.991996
H  -0.129508  -1.360844   0.987439
H   0.752299  -0.124861  -0.061192
H  -0.161436  -1.269428  -0.731258
