butane_opt
 OpenBabel08242015413D

 14 13  0  0  0  0  0  0  0  0999 V2000
   -3.9202    0.2501    0.0578 C   0  0  0  0  0  0  0  0  0  0  0  0
   -2.6884   -0.5967    0.0103 C   0  0  0  0  0  0  0  0  0  0  0  0
   -4.8980   -0.3473   -0.1647 H   0  0  0  0  0  0  0  0  0  0  0  0
   -3.8820    0.6956   -0.6986 H   0  0  0  0  0  0  0  0  0  0  0  0
   -4.0323    1.0556    1.0326 H   0  0  0  0  0  0  0  0  0  0  0  0
   -1.4175    0.2012   -0.0336 C   0  0  0  0  0  0  0  0  0  0  0  0
   -2.7477   -1.3017   -0.8473 H   0  0  0  0  0  0  0  0  0  0  0  0
   -2.7375   -1.2431    0.8822 H   0  0  0  0  0  0  0  0  0  0  0  0
   -0.1692   -0.7158    0.0718 C   0  0  0  0  0  0  0  0  0  0  0  0
   -1.4820    0.8204    0.7763 H   0  0  0  0  0  0  0  0  0  0  0  0
   -1.3490    0.9260   -0.9920 H   0  0  0  0  0  0  0  0  0  0  0  0
   -0.1295   -1.3608    0.9874 H   0  0  0  0  0  0  0  0  0  0  0  0
    0.7523   -0.1249   -0.0612 H   0  0  0  0  0  0  0  0  0  0  0  0
   -0.1614   -1.2694   -0.7313 H   0  0  0  0  0  0  0  0  0  0  0  0
  1  5  1  0  0  0  0
  2  1  1  0  0  0  0
  2  8  1  0  0  0  0
  3  1  1  0  0  0  0
  4  1  1  0  0  0  0
  6  2  1  0  0  0  0
  6  9  1  0  0  0  0
  6 10  1  0  0  0  0
  7  2  1  0  0  0  0
  9 12  1  0  0  0  0
 11  6  1  0  0  0  0
 13  9  1  0  0  0  0
 14  9  1  0  0  0  0
M  END
$$$$
