14
butane_opt
C  -3.945764   0.272526  -0.013466
C  -2.691826  -0.626616   0.055026
H  -4.846799  -0.316527   0.014071
H  -3.943499   0.914644  -0.934521
H  -4.010952   0.939836   0.834949
C  -1.410616   0.172280   0.056590
H  -2.695641  -1.248577  -0.759673
H  -2.716900  -1.304079   0.984264
C  -0.158199  -0.684288   0.001657
H  -1.362824   0.910013   0.983292
H  -1.386206   0.768826  -0.822605
H  -0.101293  -1.362758   0.937268
H   0.795038  -0.077424  -0.125162
H  -0.280138  -1.296484  -0.866270
