14
butane_opt
C  -3.948874   0.267277  -0.027631
C  -2.699806  -0.615427   0.095422
H  -4.918249  -0.323941   0.012059
H  -3.967059   1.001050  -0.998425
H  -3.993346   0.859838   0.789639
C  -1.409940   0.176818   0.048119
H  -2.705406  -1.223063  -0.714960
H  -2.683914  -1.380562   1.131280
C  -0.160733  -0.683498  -0.012258
H  -1.378585   0.802773   0.892249
H  -1.338265   0.812027  -0.834978
H  -0.132511  -1.055210   0.711021
H   0.772131  -0.071023   0.212828
H  -0.048735  -1.638673  -1.056869
