14
butane_opt
C  -3.907473   0.260178  -0.013782
C  -2.704588  -0.607877   0.111904
H  -4.866306  -0.391234  -0.241146
H  -3.803629   0.770885  -0.873078
H  -4.066115   0.975592   0.860088
C  -1.420371   0.197538   0.028398
H  -2.761443  -1.231680  -0.724332
H  -2.768401  -1.185591   0.964116
C  -0.169303  -0.714632  -0.007199
H  -1.393704   0.924106   0.886660
H  -1.420230   0.850320  -0.843764
H  -0.085239  -1.291582   0.889965
H   0.784781  -0.131749  -0.034344
H  -0.214377  -1.402027  -0.874530
