butane_opt
 OpenBabel08242015413D

 14 13  0  0  0  0  0  0  0  0999 V2000
   -3.9400    0.2522   -0.0073 C   0  0  0  0  0  0  0  0  0  0  0  0
   -2.6993   -0.5946    0.0719 C   0  0  0  0  0  0  0  0  0  0  0  0
   -4.8781   -0.3629   -0.0836 H   0  0  0  0  0  0  0  0  0  0  0  0
   -3.8679    0.7812   -0.8643 H   0  0  0  0  0  0  0  0  0  0  0  0
   -4.0171    0.9793    0.8976 H   0  0  0  0  0  0  0  0  0  0  0  0
   -1.4077    0.1903    0.0359 C   0  0  0  0  0  0  0  0  0  0  0  0
   -2.6989   -1.2625   -0.7888 H   0  0  0  0  0  0  0  0  0  0  0  0
   -2.7339   -1.2457    0.9978 H   0  0  0  0  0  0  0  0  0  0  0  0
   -0.1561   -0.6959    0.0096 C   0  0  0  0  0  0  0  0  0  0  0  0
   -1.4005    0.8213    0.8698 H   0  0  0  0  0  0  0  0  0  0  0  0
   -1.4507    0.8749   -0.8815 H   0  0  0  0  0  0  0  0  0  0  0  0
   -0.1115   -1.3537    0.8993 H   0  0  0  0  0  0  0  0  0  0  0  0
    0.7365   -0.1302   -0.0274 H   0  0  0  0  0  0  0  0  0  0  0  0
   -0.1583   -1.4062   -0.8904 H   0  0  0  0  0  0  0  0  0  0  0  0
  1  2  1  0  0  0  0
  1  5  1  0  0  0  0
  2  8  1  0  0  0  0
  3  1  1  0  0  0  0
  4  1  1  0  0  0  0
  6  2  1  0  0  0  0
  6 10  1  0  0  0  0
  7  2  1  0  0  0  0
  9  6  1  0  0  0  0
  9 12  1  0  0  0  0
 11  6  1  0  0  0  0
 13  9  1  0  0  0  0
 14  9  1  0  0  0  0
M  END
$$$$
