14
butane_opt
C  -3.950736   0.236359   0.038284
C  -2.716095  -0.582578   0.006896
H  -4.892241  -0.359480   0.174555
H  -4.015105   0.961027  -0.942590
H  -3.898487   0.848775   0.809879
C  -1.396839   0.196577   0.013654
H  -2.811019  -1.351952  -0.918423
H  -2.625916  -1.111766   0.830645
C  -0.152034  -0.716178   0.054483
H  -1.383878   0.917240   0.916015
H  -1.379671   0.865324  -0.932944
H  -0.068001  -1.398891   1.019856
H   0.753201  -0.143333  -0.106812
H  -0.105219  -1.317834  -0.781223
