14
butane_opt
C  -3.950657   0.263767   0.050076
C  -2.711538  -0.610096  -0.009064
H  -4.893149  -0.388040   0.006237
H  -3.876350   0.830589  -0.806430
H  -4.010438   1.014173   0.942226
C  -1.410211   0.198681  -0.004863
H  -2.781171  -1.325404  -0.864922
H  -2.777173  -1.212168   0.837546
C  -0.121985  -0.703925   0.051822
H  -1.416628   0.905651   0.883871
H  -1.379001   0.745532  -0.811719
H  -0.100354  -1.583764   1.144591
H   0.757563  -0.113934  -0.235225
H  -0.210838  -1.124213  -0.677825
