14
butane_opt
C  -3.901602   0.247204   0.031077
C  -2.712061  -0.593822   0.024176
H  -4.846596  -0.356767   0.067902
H  -4.008103   0.743971  -0.838259
H  -3.834064   1.019707   0.979317
C  -1.428397   0.192817  -0.034300
H  -2.776892  -1.209121  -0.771395
H  -2.727451  -1.230270   0.940484
C  -0.175373  -0.710127   0.052535
H  -1.409130   0.893480   0.807980
H  -1.399093   0.877857  -0.948665
H  -0.143745  -1.295273   0.921774
H   0.757489  -0.122121   0.221472
H  -0.027951  -1.435053  -0.813674
