14
butane_opt
C  -3.956092   0.261749   0.009090
C  -2.693502  -0.624404   0.068751
H  -4.861924  -0.303309  -0.031253
H  -3.945097   0.895655  -0.908608
H  -4.069113   0.948721   0.839163
C  -1.398658   0.184978   0.017772
H  -2.723295  -1.289007  -0.804998
H  -2.694887  -1.266079   0.968109
C  -0.160337  -0.689774   0.010718
H  -1.382048   0.893636   0.880165
H  -1.353586   0.820456  -0.884303
H  -0.104289  -1.263554   0.877094
H   0.730263  -0.120491   0.088750
H  -0.111516  -1.386675  -0.862493
