butane_opt
 OpenBabel08242015413D

 14 13  0  0  0  0  0  0  0  0999 V2000
   -3.9480    0.2521    0.0583 C   0  0  0  0  0  0  0  0  0  0  0  0
   -2.7199   -0.6011   -0.0024 C   0  0  0  0  0  0  0  0  0  0  0  0
   -4.8863   -0.3496    0.1769 H   0  0  0  0  0  0  0  0  0  0  0  0
   -4.0383    0.7696   -0.7947 H   0  0  0  0  0  0  0  0  0  0  0  0
   -3.8746    0.9931    0.9942 H   0  0  0  0  0  0  0  0  0  0  0  0
   -1.4062    0.2062   -0.0478 C   0  0  0  0  0  0  0  0  0  0  0  0
   -2.8064   -1.3274   -0.9512 H   0  0  0  0  0  0  0  0  0  0  0  0
   -2.6861   -1.1943    0.8488 H   0  0  0  0  0  0  0  0  0  0  0  0
   -0.1497   -0.7103    0.0871 C   0  0  0  0  0  0  0  0  0  0  0  0
   -1.3588    0.7579    0.7318 H   0  0  0  0  0  0  0  0  0  0  0  0
   -1.3109    0.9810   -1.0689 H   0  0  0  0  0  0  0  0  0  0  0  0
   -0.1443   -1.2359    0.9210 H   0  0  0  0  0  0  0  0  0  0  0  0
    0.7117   -0.2036    0.2035 H   0  0  0  0  0  0  0  0  0  0  0  0
    0.0649   -1.4342   -0.7552 H   0  0  0  0  0  0  0  0  0  0  0  0
  1  3  1  0  0  0  0
  1  5  1  0  0  0  0
  2  1  1  0  0  0  0
  2  8  1  0  0  0  0
  4  1  1  0  0  0  0
  6  2  1  0  0  0  0
  6  9  1  0  0  0  0
  6 10  1  0  0  0  0
  7  2  1  0  0  0  0
  9 13  1  0  0  0  0
  9 12  1  0  0  0  0
 11  6  1  0  0  0  0
 14  9  1  0  0  0  0
M  END
$$$$
