butane_opt
 OpenBabel08242015413D

 14 13  0  0  0  0  0  0  0  0999 V2000
   -3.9489    0.2673   -0.0276 C   0  0  0  0  0  0  0  0  0  0  0  0
   -2.6998   -0.6154    0.0954 C   0  0  0  0  0  0  0  0  0  0  0  0
   -4.9182   -0.3239    0.0121 H   0  0  0  0  0  0  0  0  0  0  0  0
   -3.9671    1.0010   -0.9984 H   0  0  0  0  0  0  0  0  0  0  0  0
   -3.9933    0.8598    0.7896 H   0  0  0  0  0  0  0  0  0  0  0  0
   -1.4099    0.1768    0.0481 C   0  0  0  0  0  0  0  0  0  0  0  0
   -2.7054   -1.2231   -0.7150 H   0  0  0  0  0  0  0  0  0  0  0  0
   -2.6839   -1.3806    1.1313 H   0  0  0  0  0  0  0  0  0  0  0  0
   -0.1607   -0.6835   -0.0123 C   0  0  0  0  0  0  0  0  0  0  0  0
   -1.3786    0.8028    0.8922 H   0  0  0  0  0  0  0  0  0  0  0  0
   -1.3383    0.8120   -0.8350 H   0  0  0  0  0  0  0  0  0  0  0  0
   -0.1325   -1.0552    0.7110 H   0  0  0  0  0  0  0  0  0  0  0  0
    0.7721   -0.0710    0.2128 H   0  0  0  0  0  0  0  0  0  0  0  0
   -0.0487   -1.6387   -1.0569 H   0  0  0  0  0  0  0  0  0  0  0  0
  1  3  1  0  0  0  0
  1  2  1  0  0  0  0
  1  5  1  0  0  0  0
  2  8  1  0  0  0  0
  4  1  1  0  0  0  0
  6  2  1  0  0  0  0
  6 10  1  0  0  0  0
  7  2  1  0  0  0  0
  9  6  1  0  0  0  0
  9 13  1  0  0  0  0
  9 12  1  0  0  0  0
 11  6  1  0  0  0  0
 14  9  1  0  0  0  0
M  END
$$$$
