butane_opt
 OpenBabel08242015413D

 14 13  0  0  0  0  0  0  0  0999 V2000
   -3.9784    0.2810    0.0610 C   0  0  0  0  0  0  0  0  0  0  0  0
   -2.6910   -0.6471   -0.0215 C   0  0  0  0  0  0  0  0  0  0  0  0
   -4.8678   -0.2964    0.2086 H   0  0  0  0  0  0  0  0  0  0  0  0
   -4.1477    0.9127   -0.8313 H   0  0  0  0  0  0  0  0  0  0  0  0
   -3.8866    0.8791    0.8761 H   0  0  0  0  0  0  0  0  0  0  0  0
   -1.3819    0.1924   -0.0116 C   0  0  0  0  0  0  0  0  0  0  0  0
   -2.6874   -1.3725   -0.9316 H   0  0  0  0  0  0  0  0  0  0  0  0
   -2.6605   -1.1850    0.7928 H   0  0  0  0  0  0  0  0  0  0  0  0
   -0.1658   -0.6872    0.0737 C   0  0  0  0  0  0  0  0  0  0  0  0
   -1.4839    0.7919    0.7803 H   0  0  0  0  0  0  0  0  0  0  0  0
   -1.2712    0.8468   -0.9711 H   0  0  0  0  0  0  0  0  0  0  0  0
   -0.0725   -1.3630    1.0285 H   0  0  0  0  0  0  0  0  0  0  0  0
    0.7643   -0.0735    0.0440 H   0  0  0  0  0  0  0  0  0  0  0  0
   -0.1176   -1.2730   -0.7735 H   0  0  0  0  0  0  0  0  0  0  0  0
  1  3  1  0  0  0  0
  1  5  1  0  0  0  0
  2  6  1  0  0  0  0
  2  1  1  0  0  0  0
  2  8  1  0  0  0  0
  4  1  1  0  0  0  0
  6  9  1  0  0  0  0
  6 10  1  0  0  0  0
  7  2  1  0  0  0  0
  9 12  1  0  0  0  0
 11  6  1  0  0  0  0
 13  9  1  0  0  0  0
 14  9  1  0  0  0  0
M  END
$$$$
