butane_opt
 OpenBabel08242015413D

 14 13  0  0  0  0  0  0  0  0999 V2000
   -3.9507    0.2638    0.0501 C   0  0  0  0  0  0  0  0  0  0  0  0
   -2.7115   -0.6101   -0.0091 C   0  0  0  0  0  0  0  0  0  0  0  0
   -4.8931   -0.3880    0.0062 H   0  0  0  0  0  0  0  0  0  0  0  0
   -3.8763    0.8306   -0.8064 H   0  0  0  0  0  0  0  0  0  0  0  0
   -4.0104    1.0142    0.9422 H   0  0  0  0  0  0  0  0  0  0  0  0
   -1.4102    0.1987   -0.0049 C   0  0  0  0  0  0  0  0  0  0  0  0
   -2.7812   -1.3254   -0.8649 H   0  0  0  0  0  0  0  0  0  0  0  0
   -2.7772   -1.2122    0.8375 H   0  0  0  0  0  0  0  0  0  0  0  0
   -0.1220   -0.7039    0.0518 C   0  0  0  0  0  0  0  0  0  0  0  0
   -1.4166    0.9057    0.8839 H   0  0  0  0  0  0  0  0  0  0  0  0
   -1.3790    0.7455   -0.8117 H   0  0  0  0  0  0  0  0  0  0  0  0
   -0.1004   -1.5838    1.1446 H   0  0  0  0  0  0  0  0  0  0  0  0
    0.7576   -0.1139   -0.2352 H   0  0  0  0  0  0  0  0  0  0  0  0
   -0.2108   -1.1242   -0.6778 H   0  0  0  0  0  0  0  0  0  0  0  0
  1  5  1  0  0  0  0
  2  6  1  0  0  0  0
  2  1  1  0  0  0  0
  2  8  1  0  0  0  0
  3  1  1  0  0  0  0
  4  1  1  0  0  0  0
  6  9  1  0  0  0  0
  6 10  1  0  0  0  0
  7  2  1  0  0  0  0
  9 12  1  0  0  0  0
 11  6  1  0  0  0  0
 13  9  1  0  0  0  0
 14  9  1  0  0  0  0
M  END
$$$$
