14
butane_opt
C  -3.914778   0.245129  -0.017718
C  -2.693940  -0.593076   0.058434
H  -4.915963  -0.447470   0.038973
H  -3.992953   0.927908  -0.962342
H  -3.872765   0.863961   0.837239
C  -1.425715   0.207602   0.068042
H  -2.684926  -1.241794  -0.796976
H  -2.779733  -1.203383   0.925626
C  -0.159219  -0.720978   0.007827
H  -1.385111   0.903967   0.896182
H  -1.510152   0.855574  -0.801161
H  -0.038956  -1.359217   0.913619
H   0.762106  -0.130094  -0.144604
H  -0.258492  -1.320380  -0.862869
