14
butane_opt
C  -3.923913   0.249024   0.069652
C  -2.691885  -0.601515  -0.023343
H  -4.908478  -0.408873  -0.019487
H  -3.922066   0.745800  -0.759002
H  -3.910180   1.029830   0.982281
C  -1.409612   0.225142  -0.019045
H  -2.707541  -1.365507  -0.943841
H  -2.702036  -1.176207   0.825632
C  -0.181222  -0.711813   0.090331
H  -1.529066   0.750276   0.760948
H  -1.378948   0.886524  -0.944538
H  -0.018293  -1.506580   1.062561
H   0.681139  -0.116232  -0.232809
H  -0.145218  -1.240179  -0.681662
