14
butane_opt
C  -3.939476   0.243842  -0.005948
C  -2.712425  -0.599845   0.067088
H  -4.821539  -0.331256  -0.154654
H  -3.925255   0.718467  -0.816415
H  -4.097091   1.016696   0.836198
C  -1.404480   0.209628   0.034924
H  -2.699554  -1.157710  -0.687635
H  -2.778372  -1.321077   1.059003
C  -0.139920  -0.705647   0.004468
H  -1.453723   0.883038   0.887217
H  -1.446842   0.803080  -0.848311
H  -0.005763  -1.334439   0.902356
H   0.737810  -0.136668  -0.035773
H  -0.173260  -1.398722  -0.895789
