butane_opt
 OpenBabel08242015413D

 14 13  0  0  0  0  0  0  0  0999 V2000
   -3.9118    0.2457    0.0027 C   0  0  0  0  0  0  0  0  0  0  0  0
   -2.7059   -0.5790    0.0724 C   0  0  0  0  0  0  0  0  0  0  0  0
   -4.8679   -0.4112    0.0960 H   0  0  0  0  0  0  0  0  0  0  0  0
   -3.9493    0.8522   -0.8916 H   0  0  0  0  0  0  0  0  0  0  0  0
   -3.8973    0.9019    0.8270 H   0  0  0  0  0  0  0  0  0  0  0  0
   -1.4059    0.2107    0.0068 C   0  0  0  0  0  0  0  0  0  0  0  0
   -2.7420   -1.2697   -0.8045 H   0  0  0  0  0  0  0  0  0  0  0  0
   -2.7883   -1.1992    0.9471 H   0  0  0  0  0  0  0  0  0  0  0  0
   -0.1688   -0.7228    0.0296 C   0  0  0  0  0  0  0  0  0  0  0  0
   -1.4716    0.7799    0.7886 H   0  0  0  0  0  0  0  0  0  0  0  0
   -1.4607    0.8611   -0.9088 H   0  0  0  0  0  0  0  0  0  0  0  0
   -0.2394   -1.1572    0.7958 H   0  0  0  0  0  0  0  0  0  0  0  0
    0.7900   -0.1209    0.1651 H   0  0  0  0  0  0  0  0  0  0  0  0
   -0.0777   -1.5650   -0.9301 H   0  0  0  0  0  0  0  0  0  0  0  0
  1  2  1  0  0  0  0
  1  3  1  0  0  0  0
  1  5  1  0  0  0  0
  2  8  1  0  0  0  0
  4  1  1  0  0  0  0
  6  9  1  0  0  0  0
  6  2  1  0  0  0  0
  6 10  1  0  0  0  0
  7  2  1  0  0  0  0
  9 13  1  0  0  0  0
  9 12  1  0  0  0  0
 11  6  1  0  0  0  0
 14  9  1  0  0  0  0
M  END
$$$$
