butane_opt
 OpenBabel08242015413D

 14 13  0  0  0  0  0  0  0  0999 V2000
   -3.9304    0.2569    0.0420 C   0  0  0  0  0  0  0  0  0  0  0  0
   -2.7023   -0.6025    0.0187 C   0  0  0  0  0  0  0  0  0  0  0  0
   -4.8607   -0.3680    0.0736 H   0  0  0  0  0  0  0  0  0  0  0  0
   -3.9716    0.7797   -0.8135 H   0  0  0  0  0  0  0  0  0  0  0  0
   -3.9057    0.9857    0.9622 H   0  0  0  0  0  0  0  0  0  0  0  0
   -1.4139    0.1966   -0.0300 C   0  0  0  0  0  0  0  0  0  0  0  0
   -2.7601   -1.3024   -0.8719 H   0  0  0  0  0  0  0  0  0  0  0  0
   -2.6766   -1.2180    0.9056 H   0  0  0  0  0  0  0  0  0  0  0  0
   -0.1710   -0.7061    0.0675 C   0  0  0  0  0  0  0  0  0  0  0  0
   -1.3980    0.8154    0.7635 H   0  0  0  0  0  0  0  0  0  0  0  0
   -1.3453    0.9031   -1.0040 H   0  0  0  0  0  0  0  0  0  0  0  0
   -0.1440   -1.2600    0.9147 H   0  0  0  0  0  0  0  0  0  0  0  0
    0.7122   -0.1310    0.1407 H   0  0  0  0  0  0  0  0  0  0  0  0
   -0.0568   -1.4225   -0.8045 H   0  0  0  0  0  0  0  0  0  0  0  0
  1  3  1  0  0  0  0
  1  5  1  0  0  0  0
  2  1  1  0  0  0  0
  2  8  1  0  0  0  0
  4  1  1  0  0  0  0
  6  2  1  0  0  0  0
  6  9  1  0  0  0  0
  6 10  1  0  0  0  0
  7  2  1  0  0  0  0
  9 13  1  0  0  0  0
  9 12  1  0  0  0  0
 11  6  1  0  0  0  0
 14  9  1  0  0  0  0
M  END
$$$$
