14
butane_opt
C  -3.931369   0.262225   0.036959
C  -2.711871  -0.627974   0.033918
H  -4.854994  -0.347058  -0.106622
H  -3.939859   0.742530  -0.769687
H  -4.067216   1.114903   0.988237
C  -1.390126   0.204424  -0.008520
H  -2.769232  -1.351864  -0.831884
H  -2.753811  -1.203372   0.860213
C  -0.155107  -0.708001   0.047958
H  -1.437302   0.880080   0.813883
H  -1.404108   0.938667  -1.010024
H  -0.161393  -1.429705   1.028245
H   0.728985  -0.076828  -0.080772
H  -0.099259  -1.318507  -0.752106
