butane_opt
 OpenBabel08242015413D

 14 13  0  0  0  0  0  0  0  0999 V2000
   -3.9148    0.2451   -0.0177 C   0  0  0  0  0  0  0  0  0  0  0  0
   -2.6939   -0.5931    0.0584 C   0  0  0  0  0  0  0  0  0  0  0  0
   -4.9160   -0.4475    0.0390 H   0  0  0  0  0  0  0  0  0  0  0  0
   -3.9930    0.9279   -0.9623 H   0  0  0  0  0  0  0  0  0  0  0  0
   -3.8728    0.8640    0.8372 H   0  0  0  0  0  0  0  0  0  0  0  0
   -1.4257    0.2076    0.0680 C   0  0  0  0  0  0  0  0  0  0  0  0
   -2.6849   -1.2418   -0.7970 H   0  0  0  0  0  0  0  0  0  0  0  0
   -2.7797   -1.2034    0.9256 H   0  0  0  0  0  0  0  0  0  0  0  0
   -0.1592   -0.7210    0.0078 C   0  0  0  0  0  0  0  0  0  0  0  0
   -1.3851    0.9040    0.8962 H   0  0  0  0  0  0  0  0  0  0  0  0
   -1.5102    0.8556   -0.8012 H   0  0  0  0  0  0  0  0  0  0  0  0
   -0.0390   -1.3592    0.9136 H   0  0  0  0  0  0  0  0  0  0  0  0
    0.7621   -0.1301   -0.1446 H   0  0  0  0  0  0  0  0  0  0  0  0
   -0.2585   -1.3204   -0.8629 H   0  0  0  0  0  0  0  0  0  0  0  0
  1  3  1  0  0  0  0
  1  2  1  0  0  0  0
  1  5  1  0  0  0  0
  2  6  1  0  0  0  0
  2  8  1  0  0  0  0
  4  1  1  0  0  0  0
  6 10  1  0  0  0  0
  7  2  1  0  0  0  0
  9  6  1  0  0  0  0
  9 12  1  0  0  0  0
 11  6  1  0  0  0  0
 13  9  1  0  0  0  0
 14  9  1  0  0  0  0
M  END
$$$$
