14
butane_opt
C  -3.954230   0.272727   0.040436
C  -2.698610  -0.624265   0.001448
H  -4.838463  -0.285528   0.053131
H  -4.027738   0.839831  -0.815703
H  -3.969781   1.024419   0.955813
C  -1.397517   0.173842  -0.006566
H  -2.736528  -1.351731  -0.875996
H  -2.700528  -1.208046   0.868007
C  -0.161215  -0.690039   0.060188
H  -1.398538   0.794536   0.821636
H  -1.317519   0.792991  -0.916126
H  -0.090374  -1.388479   1.021624
H   0.780324  -0.035212  -0.100868
H  -0.192204  -1.226103  -0.701964
