butane_opt
 OpenBabel08242015413D

 14 13  0  0  0  0  0  0  0  0999 V2000
   -3.9609    0.2718   -0.0092 C   0  0  0  0  0  0  0  0  0  0  0  0
   -2.7116   -0.6122    0.0774 C   0  0  0  0  0  0  0  0  0  0  0  0
   -4.9275   -0.3536    0.0456 H   0  0  0  0  0  0  0  0  0  0  0  0
   -3.9344    0.9156   -0.9878 H   0  0  0  0  0  0  0  0  0  0  0  0
   -4.0598    0.9114    0.8173 H   0  0  0  0  0  0  0  0  0  0  0  0
   -1.3833    0.1788    0.0386 C   0  0  0  0  0  0  0  0  0  0  0  0
   -2.6367   -1.2751   -0.7277 H   0  0  0  0  0  0  0  0  0  0  0  0
   -2.7244   -1.2979    0.9716 H   0  0  0  0  0  0  0  0  0  0  0  0
   -0.1574   -0.6970   -0.0042 C   0  0  0  0  0  0  0  0  0  0  0  0
   -1.2287    0.8650    0.9288 H   0  0  0  0  0  0  0  0  0  0  0  0
   -1.4284    0.8604   -0.8658 H   0  0  0  0  0  0  0  0  0  0  0  0
   -0.1902   -1.2192    0.8246 H   0  0  0  0  0  0  0  0  0  0  0  0
    0.7910   -0.1034    0.1269 H   0  0  0  0  0  0  0  0  0  0  0  0
   -0.1140   -1.4770   -0.9224 H   0  0  0  0  0  0  0  0  0  0  0  0
  1  3  1  0  0  0  0
  1  2  1  0  0  0  0
  1  5  1  0  0  0  0
  2  8  1  0  0  0  0
  4  1  1  0  0  0  0
  6  2  1  0  0  0  0
  6 10  1  0  0  0  0
  7  2  1  0  0  0  0
  9  6  1  0  0  0  0
  9 13  1  0  0  0  0
  9 12  1  0  0  0  0
 11  6  1  0  0  0  0
 14  9  1  0  0  0  0
M  END
$$$$
