butane_opt
 OpenBabel08242015413D

 14 13  0  0  0  0  0  0  0  0999 V2000
   -3.9434    0.2439   -0.0265 C   0  0  0  0  0  0  0  0  0  0  0  0
   -2.7028   -0.5901    0.0764 C   0  0  0  0  0  0  0  0  0  0  0  0
   -4.9089   -0.3793    0.0360 H   0  0  0  0  0  0  0  0  0  0  0  0
   -3.7773    0.9368   -0.9754 H   0  0  0  0  0  0  0  0  0  0  0  0
   -3.9732    0.8200    0.7753 H   0  0  0  0  0  0  0  0  0  0  0  0
   -1.4276    0.2048    0.0868 C   0  0  0  0  0  0  0  0  0  0  0  0
   -2.5937   -1.3167   -0.7742 H   0  0  0  0  0  0  0  0  0  0  0  0
   -2.7714   -1.1409    0.9472 H   0  0  0  0  0  0  0  0  0  0  0  0
   -0.1482   -0.7149   -0.0243 C   0  0  0  0  0  0  0  0  0  0  0  0
   -1.3398    0.9036    0.9785 H   0  0  0  0  0  0  0  0  0  0  0  0
   -1.4782    0.7532   -0.7898 H   0  0  0  0  0  0  0  0  0  0  0  0
   -0.0459   -1.3883    0.9100 H   0  0  0  0  0  0  0  0  0  0  0  0
    0.7445   -0.1685   -0.2014 H   0  0  0  0  0  0  0  0  0  0  0  0
   -0.2090   -1.2168   -0.7982 H   0  0  0  0  0  0  0  0  0  0  0  0
  1  3  1  0  0  0  0
  1  2  1  0  0  0  0
  1  5  1  0  0  0  0
  2  6  1  0  0  0  0
  2  8  1  0  0  0  0
  4  1  1  0  0  0  0
  6 10  1  0  0  0  0
  7  2  1  0  0  0  0
  9  6  1  0  0  0  0
  9 12  1  0  0  0  0
 11  6  1  0  0  0  0
 13  9  1  0  0  0  0
 14  9  1  0  0  0  0
M  END
$$$$
