butane_opt
 OpenBabel08242015413D

 14 13  0  0  0  0  0  0  0  0999 V2000
   -3.9366    0.2453    0.0420 C   0  0  0  0  0  0  0  0  0  0  0  0
   -2.7014   -0.5965    0.0106 C   0  0  0  0  0  0  0  0  0  0  0  0
   -4.8802   -0.3624    0.1665 H   0  0  0  0  0  0  0  0  0  0  0  0
   -4.0093    0.9531   -0.9101 H   0  0  0  0  0  0  0  0  0  0  0  0
   -3.9019    0.8652    0.8683 H   0  0  0  0  0  0  0  0  0  0  0  0
   -1.4173    0.2025   -0.0085 C   0  0  0  0  0  0  0  0  0  0  0  0
   -2.7226   -1.3440   -0.8714 H   0  0  0  0  0  0  0  0  0  0  0  0
   -2.7282   -1.1528    0.8545 H   0  0  0  0  0  0  0  0  0  0  0  0
   -0.1459   -0.7130    0.0586 C   0  0  0  0  0  0  0  0  0  0  0  0
   -1.4109    0.8670    0.8276 H   0  0  0  0  0  0  0  0  0  0  0  0
   -1.3948    0.8245   -0.8929 H   0  0  0  0  0  0  0  0  0  0  0  0
   -0.1942   -1.3188    0.9402 H   0  0  0  0  0  0  0  0  0  0  0  0
    0.7610   -0.1132    0.0188 H   0  0  0  0  0  0  0  0  0  0  0  0
   -0.1109   -1.3548   -0.8011 H   0  0  0  0  0  0  0  0  0  0  0  0
  1  3  1  0  0  0  0
  1  5  1  0  0  0  0
  2  1  1  0  0  0  0
  2  8  1  0  0  0  0
  4  1  1  0  0  0  0
  6  2  1  0  0  0  0
  6  9  1  0  0  0  0
  6 10  1  0  0  0  0
  7  2  1  0  0  0  0
  9 12  1  0  0  0  0
 11  6  1  0  0  0  0
 13  9  1  0  0  0  0
 14  9  1  0  0  0  0
M  END
$$$$
