14
butane_opt
C  -3.948585   0.254343  -0.001651
C  -2.703405  -0.619761   0.047561
H  -4.888386  -0.336563   0.164186
H  -4.007412   0.970186  -0.953554
H  -3.975010   0.838111   0.797918
C  -1.404639   0.205102   0.037828
H  -2.653288  -1.285898  -0.787009
H  -2.719632  -1.212373   0.918555
C  -0.153925  -0.701294   0.017317
H  -1.385966   0.894102   0.900954
H  -1.359948   0.843938  -0.833050
H  -0.072023  -1.292595   0.883432
H   0.730503  -0.126186   0.001477
H  -0.153564  -1.436760  -0.876203
