butane_opt
 OpenBabel08242015413D

 14 13  0  0  0  0  0  0  0  0999 V2000
   -3.9293    0.2755    0.0287 C   0  0  0  0  0  0  0  0  0  0  0  0
   -2.6837   -0.6189   -0.0142 C   0  0  0  0  0  0  0  0  0  0  0  0
   -4.8409   -0.3226    0.3565 H   0  0  0  0  0  0  0  0  0  0  0  0
   -4.1517    0.9801   -0.9136 H   0  0  0  0  0  0  0  0  0  0  0  0
   -3.8361    0.8388    0.8265 H   0  0  0  0  0  0  0  0  0  0  0  0
   -1.3962    0.1767   -0.0011 C   0  0  0  0  0  0  0  0  0  0  0  0
   -2.7252   -1.3698   -0.8797 H   0  0  0  0  0  0  0  0  0  0  0  0
   -2.7216   -1.2655    0.9174 H   0  0  0  0  0  0  0  0  0  0  0  0
   -0.1948   -0.6839    0.0569 C   0  0  0  0  0  0  0  0  0  0  0  0
   -1.3386    0.9035    0.8810 H   0  0  0  0  0  0  0  0  0  0  0  0
   -1.3686    0.7795   -0.8470 H   0  0  0  0  0  0  0  0  0  0  0  0
   -0.1634   -1.3237    0.9615 H   0  0  0  0  0  0  0  0  0  0  0  0
    0.7293   -0.1013    0.0423 H   0  0  0  0  0  0  0  0  0  0  0  0
   -0.1551   -1.3717   -0.7534 H   0  0  0  0  0  0  0  0  0  0  0  0
  1  3  1  0  0  0  0
  1  5  1  0  0  0  0
  2  6  1  0  0  0  0
  2  1  1  0  0  0  0
  2  8  1  0  0  0  0
  4  1  1  0  0  0  0
  6  9  1  0  0  0  0
  6 10  1  0  0  0  0
  7  2  1  0  0  0  0
  9 12  1  0  0  0  0
 11  6  1  0  0  0  0
 13  9  1  0  0  0  0
 14  9  1  0  0  0  0
M  END
$$$$
