butane_opt
 OpenBabel08242015413D

 14 13  0  0  0  0  0  0  0  0999 V2000
   -3.9295    0.2608   -0.0012 C   0  0  0  0  0  0  0  0  0  0  0  0
   -2.7061   -0.6048    0.0369 C   0  0  0  0  0  0  0  0  0  0  0  0
   -4.8524   -0.3398    0.1868 H   0  0  0  0  0  0  0  0  0  0  0  0
   -4.0285    0.9800   -0.9452 H   0  0  0  0  0  0  0  0  0  0  0  0
   -3.8450    0.7376    0.7592 H   0  0  0  0  0  0  0  0  0  0  0  0
   -1.3952    0.1995    0.0468 C   0  0  0  0  0  0  0  0  0  0  0  0
   -2.6938   -1.3103   -0.8438 H   0  0  0  0  0  0  0  0  0  0  0  0
   -2.6753   -1.2441    0.9406 H   0  0  0  0  0  0  0  0  0  0  0  0
   -0.1799   -0.7015    0.0062 C   0  0  0  0  0  0  0  0  0  0  0  0
   -1.3578    0.9478    0.9529 H   0  0  0  0  0  0  0  0  0  0  0  0
   -1.4020    0.8223   -0.7910 H   0  0  0  0  0  0  0  0  0  0  0  0
   -0.1878   -1.3848    0.9535 H   0  0  0  0  0  0  0  0  0  0  0  0
    0.7135   -0.1870    0.0077 H   0  0  0  0  0  0  0  0  0  0  0  0
   -0.1541   -1.3498   -0.8616 H   0  0  0  0  0  0  0  0  0  0  0  0
  1  2  1  0  0  0  0
  1  3  1  0  0  0  0
  1  5  1  0  0  0  0
  2  6  1  0  0  0  0
  2  8  1  0  0  0  0
  4  1  1  0  0  0  0
  6 10  1  0  0  0  0
  7  2  1  0  0  0  0
  9 13  1  0  0  0  0
  9  6  1  0  0  0  0
  9 12  1  0  0  0  0
 11  6  1  0  0  0  0
 14  9  1  0  0  0  0
M  END
$$$$
