butane_opt
 OpenBabel08242015413D

 14 13  0  0  0  0  0  0  0  0999 V2000
   -3.9606    0.2771   -0.0503 C   0  0  0  0  0  0  0  0  0  0  0  0
   -2.6985   -0.6313    0.1268 C   0  0  0  0  0  0  0  0  0  0  0  0
   -4.8404   -0.2618   -0.2002 H   0  0  0  0  0  0  0  0  0  0  0  0
   -3.9498    0.7755   -0.8925 H   0  0  0  0  0  0  0  0  0  0  0  0
   -4.0981    0.9851    0.8424 H   0  0  0  0  0  0  0  0  0  0  0  0
   -1.4054    0.1742    0.0686 C   0  0  0  0  0  0  0  0  0  0  0  0
   -2.5786   -1.3096   -0.6843 H   0  0  0  0  0  0  0  0  0  0  0  0
   -2.7966   -1.3242    1.0849 H   0  0  0  0  0  0  0  0  0  0  0  0
   -0.1583   -0.6704   -0.0288 C   0  0  0  0  0  0  0  0  0  0  0  0
   -1.2616    0.8452    0.9071 H   0  0  0  0  0  0  0  0  0  0  0  0
   -1.4169    0.8570   -0.8454 H   0  0  0  0  0  0  0  0  0  0  0  0
    0.0061   -1.2409    0.8253 H   0  0  0  0  0  0  0  0  0  0  0  0
    0.7684   -0.1152   -0.0393 H   0  0  0  0  0  0  0  0  0  0  0  0
   -0.1933   -1.4747   -0.9473 H   0  0  0  0  0  0  0  0  0  0  0  0
  1  2  1  0  0  0  0
  1  5  1  0  0  0  0
  2  8  1  0  0  0  0
  3  1  1  0  0  0  0
  4  1  1  0  0  0  0
  6  2  1  0  0  0  0
  6 10  1  0  0  0  0
  7  2  1  0  0  0  0
  9  6  1  0  0  0  0
  9 12  1  0  0  0  0
 11  6  1  0  0  0  0
 13  9  1  0  0  0  0
 14  9  1  0  0  0  0
M  END
$$$$
