14
butane_opt
C  -3.926238   0.253650   0.066607
C  -2.693394  -0.583902   0.007617
H  -4.920797  -0.413902  -0.043082
H  -3.940874   0.768743  -0.794163
H  -3.925302   0.940174   0.964995
C  -1.429217   0.177893  -0.054435
H  -2.713472  -1.247009  -0.826211
H  -2.685918  -1.218141   0.901072
C  -0.163935  -0.705955   0.075643
H  -1.447836   0.825883   0.798637
H  -1.319326   0.933017  -0.993080
H  -0.146475  -1.228680   0.929356
H   0.721830  -0.110725   0.162532
H  -0.080947  -1.444278  -0.813293
