14
butane_opt
C  -3.929250   0.275500   0.028723
C  -2.683729  -0.618893  -0.014163
H  -4.840948  -0.322602   0.356485
H  -4.151740   0.980080  -0.913559
H  -3.836095   0.838782   0.826472
C  -1.396237   0.176708  -0.001116
H  -2.725157  -1.369831  -0.879713
H  -2.721551  -1.265493   0.917372
C  -0.194845  -0.683884   0.056860
H  -1.338580   0.903530   0.881026
H  -1.368635   0.779477  -0.847031
H  -0.163351  -1.323720   0.961473
H   0.729288  -0.101253   0.042265
H  -0.155134  -1.371677  -0.753372
