14
butane_opt
C  -3.917573   0.244805   0.070537
C  -2.694862  -0.603041   0.001087
H  -4.858407  -0.349997   0.140779
H  -4.041230   0.802178  -0.789436
H  -3.820584   0.970303   0.953463
C  -1.428554   0.196452  -0.067217
H  -2.778104  -1.299357  -0.881465
H  -2.744083  -1.112512   0.799074
C  -0.155715  -0.701558   0.092061
H  -1.515528   0.763045   0.711245
H  -1.350551   0.970537  -1.033240
H  -0.221707  -1.231101   0.971041
H   0.708378  -0.172233   0.268447
H  -0.036193  -1.475710  -0.860635
