butane_opt
 OpenBabel08242015413D

 14 13  0  0  0  0  0  0  0  0999 V2000
   -3.9392    0.2515   -0.0286 C   0  0  0  0  0  0  0  0  0  0  0  0
   -2.6918   -0.5821    0.1133 C   0  0  0  0  0  0  0  0  0  0  0  0
   -4.8840   -0.3646   -0.1897 H   0  0  0  0  0  0  0  0  0  0  0  0
   -3.7344    0.8585   -0.8934 H   0  0  0  0  0  0  0  0  0  0  0  0
   -4.0956    0.9047    0.7848 H   0  0  0  0  0  0  0  0  0  0  0  0
   -1.3987    0.1719    0.0632 C   0  0  0  0  0  0  0  0  0  0  0  0
   -2.6986   -1.2445   -0.7421 H   0  0  0  0  0  0  0  0  0  0  0  0
   -2.7072   -1.2671    1.0374 H   0  0  0  0  0  0  0  0  0  0  0  0
   -0.1753   -0.6930   -0.0184 C   0  0  0  0  0  0  0  0  0  0  0  0
   -1.3232    0.8940    0.8960 H   0  0  0  0  0  0  0  0  0  0  0  0
   -1.5060    0.8401   -0.8189 H   0  0  0  0  0  0  0  0  0  0  0  0
   -0.1365   -1.2877    0.8440 H   0  0  0  0  0  0  0  0  0  0  0  0
    0.7190   -0.1236   -0.0717 H   0  0  0  0  0  0  0  0  0  0  0  0
   -0.1906   -1.4820   -0.9664 H   0  0  0  0  0  0  0  0  0  0  0  0
  1  2  1  0  0  0  0
  1  5  1  0  0  0  0
  2  8  1  0  0  0  0
  3  1  1  0  0  0  0
  4  1  1  0  0  0  0
  6  2  1  0  0  0  0
  6 10  1  0  0  0  0
  7  2  1  0  0  0  0
  9  6  1  0  0  0  0
  9 12  1  0  0  0  0
 11  6  1  0  0  0  0
 13  9  1  0  0  0  0
 14  9  1  0  0  0  0
M  END
$$$$
