14
butane_opt
C  -3.967724   0.263955   0.049738
C  -2.704925  -0.617695   0.025762
H  -4.828220  -0.302299  -0.191316
H  -3.942028   0.737020  -0.759908
H  -4.116323   1.184381   1.016154
C  -1.393331   0.176959  -0.017917
H  -2.760092  -1.331907  -0.900618
H  -2.726379  -1.244818   0.930939
C  -0.134416  -0.687043   0.060678
H  -1.314766   0.748809   0.747296
H  -1.358068   0.897129  -1.004018
H  -0.121023  -1.398030   1.011986
H   0.818599  -0.096155  -0.028059
H  -0.258179  -1.298679  -0.760836
