butane_opt
 OpenBabel08242015413D

 14 13  0  0  0  0  0  0  0  0999 V2000
   -3.9677    0.2640    0.0497 C   0  0  0  0  0  0  0  0  0  0  0  0
   -2.7049   -0.6177    0.0258 C   0  0  0  0  0  0  0  0  0  0  0  0
   -4.8282   -0.3023   -0.1913 H   0  0  0  0  0  0  0  0  0  0  0  0
   -3.9420    0.7370   -0.7599 H   0  0  0  0  0  0  0  0  0  0  0  0
   -4.1163    1.1844    1.0162 H   0  0  0  0  0  0  0  0  0  0  0  0
   -1.3933    0.1770   -0.0179 C   0  0  0  0  0  0  0  0  0  0  0  0
   -2.7601   -1.3319   -0.9006 H   0  0  0  0  0  0  0  0  0  0  0  0
   -2.7264   -1.2448    0.9309 H   0  0  0  0  0  0  0  0  0  0  0  0
   -0.1344   -0.6870    0.0607 C   0  0  0  0  0  0  0  0  0  0  0  0
   -1.3148    0.7488    0.7473 H   0  0  0  0  0  0  0  0  0  0  0  0
   -1.3581    0.8971   -1.0040 H   0  0  0  0  0  0  0  0  0  0  0  0
   -0.1210   -1.3980    1.0120 H   0  0  0  0  0  0  0  0  0  0  0  0
    0.8186   -0.0962   -0.0281 H   0  0  0  0  0  0  0  0  0  0  0  0
   -0.2582   -1.2987   -0.7608 H   0  0  0  0  0  0  0  0  0  0  0  0
  1  5  1  0  0  0  0
  2  1  1  0  0  0  0
  2  8  1  0  0  0  0
  3  1  1  0  0  0  0
  4  1  1  0  0  0  0
  6  2  1  0  0  0  0
  6  9  1  0  0  0  0
  6 10  1  0  0  0  0
  7  2  1  0  0  0  0
  9 12  1  0  0  0  0
 11  6  1  0  0  0  0
 13  9  1  0  0  0  0
 14  9  1  0  0  0  0
M  END
$$$$
