butane_opt
 OpenBabel08242015413D

 14 13  0  0  0  0  0  0  0  0999 V2000
   -3.9444    0.2791   -0.0556 C   0  0  0  0  0  0  0  0  0  0  0  0
   -2.6785   -0.6358    0.1116 C   0  0  0  0  0  0  0  0  0  0  0  0
   -4.8157   -0.2878   -0.1088 H   0  0  0  0  0  0  0  0  0  0  0  0
   -3.9245    0.8235   -0.8912 H   0  0  0  0  0  0  0  0  0  0  0  0
   -4.0229    1.0068    0.8278 H   0  0  0  0  0  0  0  0  0  0  0  0
   -1.4148    0.1724    0.0690 C   0  0  0  0  0  0  0  0  0  0  0  0
   -2.5744   -1.2527   -0.6893 H   0  0  0  0  0  0  0  0  0  0  0  0
   -2.7602   -1.3826    1.0830 H   0  0  0  0  0  0  0  0  0  0  0  0
   -0.1874   -0.6784   -0.0254 C   0  0  0  0  0  0  0  0  0  0  0  0
   -1.2610    0.8769    0.9396 H   0  0  0  0  0  0  0  0  0  0  0  0
   -1.4391    0.7348   -0.7185 H   0  0  0  0  0  0  0  0  0  0  0  0
    0.0009   -1.2698    0.8052 H   0  0  0  0  0  0  0  0  0  0  0  0
    0.7055   -0.0572   -0.0809 H   0  0  0  0  0  0  0  0  0  0  0  0
   -0.2392   -1.3047   -0.9037 H   0  0  0  0  0  0  0  0  0  0  0  0
  1  2  1  0  0  0  0
  1  5  1  0  0  0  0
  2  8  1  0  0  0  0
  3  1  1  0  0  0  0
  4  1  1  0  0  0  0
  6  2  1  0  0  0  0
  6 10  1  0  0  0  0
  7  2  1  0  0  0  0
  9  6  1  0  0  0  0
  9 12  1  0  0  0  0
 11  6  1  0  0  0  0
 13  9  1  0  0  0  0
 14  9  1  0  0  0  0
M  END
$$$$
