14
butane_opt
C  -3.973883   0.283331  -0.018134
C  -2.689231  -0.634461   0.072305
H  -4.935196  -0.310030   0.123666
H  -4.036288   1.042551  -1.009806
H  -4.015388   0.837566   0.731079
C  -1.396346   0.159007   0.045818
H  -2.772788  -1.278985  -0.747467
H  -2.645193  -1.301231   0.997644
C  -0.146927  -0.668422   0.002956
H  -1.339325   0.892593   0.915584
H  -1.369752   0.679811  -0.736269
H  -0.133494  -1.194911   0.831485
H   0.782616  -0.075815   0.022163
H  -0.087444  -1.436060  -0.962120
