14
butane_opt
C  -3.939185   0.251469  -0.028573
C  -2.691843  -0.582051   0.113279
H  -4.884016  -0.364641  -0.189668
H  -3.734374   0.858542  -0.893445
H  -4.095560   0.904680   0.784794
C  -1.398659   0.171911   0.063189
H  -2.698576  -1.244476  -0.742118
H  -2.707246  -1.267095   1.037414
C  -0.175322  -0.692971  -0.018384
H  -1.323162   0.894020   0.896031
H  -1.506014   0.840145  -0.818880
H  -0.136505  -1.287685   0.843975
H   0.719028  -0.123633  -0.071691
H  -0.190620  -1.481956  -0.966446
