14
butane_opt
C  -3.950007   0.271267  -0.000390
C  -2.706621  -0.626076   0.054380
H  -4.846502  -0.271608  -0.019645
H  -3.985905   0.918168  -0.925753
H  -4.082711   0.933067   0.831000
C  -1.389668   0.178604   0.051581
H  -2.664129  -1.331525  -0.786368
H  -2.753877  -1.271465   0.957744
C  -0.158655  -0.686899   0.009558
H  -1.359386   0.865382   0.909102
H  -1.354408   0.809463  -0.857828
H  -0.036124  -1.366773   0.927670
H   0.786222  -0.068968  -0.104782
H  -0.267925  -1.322720  -0.864116
