14
butane_opt
C  -3.939349   0.257450   0.002394
C  -2.694971  -0.605427   0.045151
H  -4.899258  -0.345608  -0.005945
H  -3.811853   0.815173  -0.926936
H  -3.932128   0.880976   0.820185
C  -1.424725   0.196049   0.048878
H  -2.777508  -1.193149  -0.776018
H  -2.684543  -1.231799   0.937095
C  -0.150782  -0.704668   0.002854
H  -1.415522   0.974507   0.955905
H  -1.441265   0.716999  -0.803457
H  -0.087535  -1.437186   0.970625
H   0.737903  -0.143333  -0.166374
H  -0.197628  -1.232034  -0.747874
