14
butane_opt
C  -3.946134   0.251714   0.087129
C  -2.711166  -0.611791  -0.038201
H  -4.862561  -0.358750   0.197528
H  -4.130213   0.936458  -0.840560
H  -3.915695   0.806131   0.884087
C  -1.396799   0.209020  -0.030597
H  -2.738326  -1.386808  -0.983457
H  -2.743711  -1.077908   0.760496
C  -0.135199  -0.708434   0.082322
H  -1.454072   0.856106   0.765809
H  -1.422779   0.900458  -0.978216
H  -0.145937  -1.414750   1.059286
H   0.701417  -0.131574   0.043530
H  -0.025990  -1.298865  -0.671215
