butane_opt
 OpenBabel08242015413D

 14 13  0  0  0  0  0  0  0  0999 V2000
   -3.9519    0.2479   -0.0052 C   0  0  0  0  0  0  0  0  0  0  0  0
   -2.7267   -0.5890    0.0769 C   0  0  0  0  0  0  0  0  0  0  0  0
   -4.8487   -0.3437   -0.1895 H   0  0  0  0  0  0  0  0  0  0  0  0
   -3.8745    0.7615   -0.8348 H   0  0  0  0  0  0  0  0  0  0  0  0
   -4.0460    0.9698    0.8952 H   0  0  0  0  0  0  0  0  0  0  0  0
   -1.4111    0.1959    0.0115 C   0  0  0  0  0  0  0  0  0  0  0  0
   -2.7468   -1.2321   -0.7427 H   0  0  0  0  0  0  0  0  0  0  0  0
   -2.7082   -1.2899    1.0684 H   0  0  0  0  0  0  0  0  0  0  0  0
   -0.1313   -0.7089    0.0128 C   0  0  0  0  0  0  0  0  0  0  0  0
   -1.3238    0.9624    0.9204 H   0  0  0  0  0  0  0  0  0  0  0  0
   -1.4572    0.7751   -0.8346 H   0  0  0  0  0  0  0  0  0  0  0  0
   -0.0388   -1.3289    0.9075 H   0  0  0  0  0  0  0  0  0  0  0  0
    0.7393   -0.0993   -0.0591 H   0  0  0  0  0  0  0  0  0  0  0  0
   -0.0685   -1.4071   -0.8445 H   0  0  0  0  0  0  0  0  0  0  0  0
  1  2  1  0  0  0  0
  1  5  1  0  0  0  0
  2  8  1  0  0  0  0
  3  1  1  0  0  0  0
  4  1  1  0  0  0  0
  6  9  1  0  0  0  0
  6  2  1  0  0  0  0
  6 10  1  0  0  0  0
  7  2  1  0  0  0  0
  9 12  1  0  0  0  0
 11  6  1  0  0  0  0
 13  9  1  0  0  0  0
 14  9  1  0  0  0  0
M  END
$$$$
