butane_opt
 OpenBabel08242015413D

 14 13  0  0  0  0  0  0  0  0999 V2000
   -3.9304    0.2569   -0.0017 C   0  0  0  0  0  0  0  0  0  0  0  0
   -2.7030   -0.5904    0.0835 C   0  0  0  0  0  0  0  0  0  0  0  0
   -4.8118   -0.3142   -0.1928 H   0  0  0  0  0  0  0  0  0  0  0  0
   -3.8041    0.7717   -0.8137 H   0  0  0  0  0  0  0  0  0  0  0  0
   -4.0659    1.0215    0.9184 H   0  0  0  0  0  0  0  0  0  0  0  0
   -1.4061    0.1750    0.0089 C   0  0  0  0  0  0  0  0  0  0  0  0
   -2.7087   -1.2319   -0.7248 H   0  0  0  0  0  0  0  0  0  0  0  0
   -2.6967   -1.3230    1.0425 H   0  0  0  0  0  0  0  0  0  0  0  0
   -0.1799   -0.7020    0.0018 C   0  0  0  0  0  0  0  0  0  0  0  0
   -1.4202    0.9144    0.9049 H   0  0  0  0  0  0  0  0  0  0  0  0
   -1.3849    0.7641   -0.9015 H   0  0  0  0  0  0  0  0  0  0  0  0
   -0.1718   -1.3008    0.8787 H   0  0  0  0  0  0  0  0  0  0  0  0
    0.8364   -0.0296    0.0595 H   0  0  0  0  0  0  0  0  0  0  0  0
   -0.1712   -1.4055   -0.8380 H   0  0  0  0  0  0  0  0  0  0  0  0
  1  2  1  0  0  0  0
  1  5  1  0  0  0  0
  2  8  1  0  0  0  0
  3  1  1  0  0  0  0
  4  1  1  0  0  0  0
  6  2  1  0  0  0  0
  6 10  1  0  0  0  0
  7  2  1  0  0  0  0
  9  6  1  0  0  0  0
  9 13  1  0  0  0  0
  9 12  1  0  0  0  0
 11  6  1  0  0  0  0
 14  9  1  0  0  0  0
M  END
$$$$
