14
butane_opt
C  -3.920455   0.242773  -0.015061
C  -2.709834  -0.576324   0.045252
H  -4.865780  -0.384666   0.238023
H  -3.937421   1.045463  -1.051805
H  -3.761950   0.766146   0.748067
C  -1.436408   0.203072   0.052186
H  -2.790393  -1.227663  -0.758688
H  -2.718425  -1.318600   1.011467
C  -0.150761  -0.715294   0.002887
H  -1.426639   0.959271   0.957598
H  -1.403657   0.717216  -0.755873
H  -0.103836  -1.306275   0.825617
H   0.811338  -0.092409   0.082897
H  -0.219449  -1.464727  -0.907479
