14
butane_opt
C  -3.954122   0.271209   0.026403
C  -2.693560  -0.617010   0.031950
H  -4.842873  -0.316134  -0.055002
H  -3.944543   0.802680  -0.835427
H  -4.002840   1.029461   0.931042
C  -1.397116   0.171044   0.007517
H  -2.686725  -1.318133  -0.809754
H  -2.667166  -1.247838   0.927089
C  -0.168120  -0.681664   0.038073
H  -1.424766   0.796999   0.825769
H  -1.327541   0.808181  -0.908624
H  -0.115096  -1.365924   0.965849
H   0.746188  -0.067907  -0.053112
H  -0.206635  -1.307733  -0.785220
