14
butane_opt
C  -3.932322   0.249930  -0.022273
C  -2.697392  -0.613459   0.082179
H  -4.835173  -0.297451  -0.002886
H  -3.878211   0.909512  -0.969977
H  -3.954568   0.829012   0.753377
C  -1.408759   0.209163   0.060343
H  -2.723611  -1.150674  -0.671894
H  -2.785422  -1.283797   1.005258
C  -0.171730  -0.715901  -0.009535
H  -1.335942   0.960482   0.921108
H  -1.462864   0.817529  -0.811207
H  -0.125518  -1.176476   0.800196
H   0.735014  -0.152644  -0.006702
H  -0.133345  -1.495843  -0.927945
