butane_opt
 OpenBabel08242015413D

 14 13  0  0  0  0  0  0  0  0999 V2000
   -3.9323    0.2499   -0.0223 C   0  0  0  0  0  0  0  0  0  0  0  0
   -2.6974   -0.6135    0.0822 C   0  0  0  0  0  0  0  0  0  0  0  0
   -4.8352   -0.2975   -0.0029 H   0  0  0  0  0  0  0  0  0  0  0  0
   -3.8782    0.9095   -0.9700 H   0  0  0  0  0  0  0  0  0  0  0  0
   -3.9546    0.8290    0.7534 H   0  0  0  0  0  0  0  0  0  0  0  0
   -1.4088    0.2092    0.0603 C   0  0  0  0  0  0  0  0  0  0  0  0
   -2.7236   -1.1507   -0.6719 H   0  0  0  0  0  0  0  0  0  0  0  0
   -2.7854   -1.2838    1.0053 H   0  0  0  0  0  0  0  0  0  0  0  0
   -0.1717   -0.7159   -0.0095 C   0  0  0  0  0  0  0  0  0  0  0  0
   -1.3359    0.9605    0.9211 H   0  0  0  0  0  0  0  0  0  0  0  0
   -1.4629    0.8175   -0.8112 H   0  0  0  0  0  0  0  0  0  0  0  0
   -0.1255   -1.1765    0.8002 H   0  0  0  0  0  0  0  0  0  0  0  0
    0.7350   -0.1526   -0.0067 H   0  0  0  0  0  0  0  0  0  0  0  0
   -0.1333   -1.4958   -0.9279 H   0  0  0  0  0  0  0  0  0  0  0  0
  1  3  1  0  0  0  0
  1  2  1  0  0  0  0
  1  5  1  0  0  0  0
  2  8  1  0  0  0  0
  4  1  1  0  0  0  0
  6  2  1  0  0  0  0
  6 10  1  0  0  0  0
  7  2  1  0  0  0  0
  9 13  1  0  0  0  0
  9  6  1  0  0  0  0
  9 12  1  0  0  0  0
 11  6  1  0  0  0  0
 14  9  1  0  0  0  0
M  END
$$$$
