14
butane_opt
C  -3.951880   0.247925  -0.005210
C  -2.726663  -0.589014   0.076892
H  -4.848680  -0.343717  -0.189543
H  -3.874477   0.761502  -0.834830
H  -4.046010   0.969802   0.895227
C  -1.411067   0.195905   0.011460
H  -2.746762  -1.232116  -0.742711
H  -2.708246  -1.289886   1.068385
C  -0.131326  -0.708868   0.012759
H  -1.323831   0.962389   0.920415
H  -1.457249   0.775089  -0.834555
H  -0.038809  -1.328913   0.907512
H   0.739285  -0.099282  -0.059056
H  -0.068517  -1.407081  -0.844476
