14
butane_opt
C  -3.952040   0.259413   0.066770
C  -2.707125  -0.625712  -0.027369
H  -4.870421  -0.292819  -0.004360
H  -3.916866   0.822519  -0.835521
H  -3.957363   0.967891   0.967452
C  -1.402142   0.195944  -0.007888
H  -2.807356  -1.332233  -0.908649
H  -2.701875  -1.100368   0.791035
C  -0.156135  -0.689492   0.075083
H  -1.368826   0.849876   0.843554
H  -1.370997   0.854454  -0.897854
H   0.021862  -1.563394   1.141465
H   0.693568  -0.172045  -0.274314
H  -0.146063  -1.189345  -0.640741
