butane_opt
 OpenBabel08242015413D

 14 13  0  0  0  0  0  0  0  0999 V2000
   -3.9205    0.2428   -0.0151 C   0  0  0  0  0  0  0  0  0  0  0  0
   -2.7098   -0.5763    0.0453 C   0  0  0  0  0  0  0  0  0  0  0  0
   -4.8658   -0.3847    0.2380 H   0  0  0  0  0  0  0  0  0  0  0  0
   -3.9374    1.0455   -1.0518 H   0  0  0  0  0  0  0  0  0  0  0  0
   -3.7620    0.7661    0.7481 H   0  0  0  0  0  0  0  0  0  0  0  0
   -1.4364    0.2031    0.0522 C   0  0  0  0  0  0  0  0  0  0  0  0
   -2.7904   -1.2277   -0.7587 H   0  0  0  0  0  0  0  0  0  0  0  0
   -2.7184   -1.3186    1.0115 H   0  0  0  0  0  0  0  0  0  0  0  0
   -0.1508   -0.7153    0.0029 C   0  0  0  0  0  0  0  0  0  0  0  0
   -1.4266    0.9593    0.9576 H   0  0  0  0  0  0  0  0  0  0  0  0
   -1.4037    0.7172   -0.7559 H   0  0  0  0  0  0  0  0  0  0  0  0
   -0.1038   -1.3063    0.8256 H   0  0  0  0  0  0  0  0  0  0  0  0
    0.8113   -0.0924    0.0829 H   0  0  0  0  0  0  0  0  0  0  0  0
   -0.2194   -1.4647   -0.9075 H   0  0  0  0  0  0  0  0  0  0  0  0
  1  2  1  0  0  0  0
  1  3  1  0  0  0  0
  1  5  1  0  0  0  0
  2  6  1  0  0  0  0
  2  8  1  0  0  0  0
  4  1  1  0  0  0  0
  6 10  1  0  0  0  0
  7  2  1  0  0  0  0
  9  6  1  0  0  0  0
  9 13  1  0  0  0  0
  9 12  1  0  0  0  0
 11  6  1  0  0  0  0
 14  9  1  0  0  0  0
M  END
$$$$
