butane_opt
 OpenBabel08242015413D

 14 13  0  0  0  0  0  0  0  0999 V2000
   -3.9525    0.2526    0.0485 C   0  0  0  0  0  0  0  0  0  0  0  0
   -2.7068   -0.6047    0.0247 C   0  0  0  0  0  0  0  0  0  0  0  0
   -4.8752   -0.3375   -0.0944 H   0  0  0  0  0  0  0  0  0  0  0  0
   -3.9125    0.7680   -0.7819 H   0  0  0  0  0  0  0  0  0  0  0  0
   -3.9656    1.0238    0.9689 H   0  0  0  0  0  0  0  0  0  0  0  0
   -1.4141    0.2009   -0.0251 C   0  0  0  0  0  0  0  0  0  0  0  0
   -2.7559   -1.3279   -0.8591 H   0  0  0  0  0  0  0  0  0  0  0  0
   -2.7210   -1.2092    0.9050 H   0  0  0  0  0  0  0  0  0  0  0  0
   -0.1390   -0.7042    0.0513 C   0  0  0  0  0  0  0  0  0  0  0  0
   -1.4293    0.8353    0.8125 H   0  0  0  0  0  0  0  0  0  0  0  0
   -1.3947    0.8749   -0.9582 H   0  0  0  0  0  0  0  0  0  0  0  0
   -0.1585   -1.4072    1.0239 H   0  0  0  0  0  0  0  0  0  0  0  0
    0.7961   -0.1055    0.0369 H   0  0  0  0  0  0  0  0  0  0  0  0
   -0.0644   -1.3232   -0.7933 H   0  0  0  0  0  0  0  0  0  0  0  0
  1  5  1  0  0  0  0
  2  1  1  0  0  0  0
  2  8  1  0  0  0  0
  3  1  1  0  0  0  0
  4  1  1  0  0  0  0
  6  2  1  0  0  0  0
  6  9  1  0  0  0  0
  6 10  1  0  0  0  0
  7  2  1  0  0  0  0
  9 12  1  0  0  0  0
 11  6  1  0  0  0  0
 13  9  1  0  0  0  0
 14  9  1  0  0  0  0
M  END
$$$$
