14
butane_opt
C  -3.940446   0.259212  -0.046117
C  -2.708076  -0.617857   0.075529
H  -4.861968  -0.356304   0.048283
H  -4.000874   0.876580  -0.942530
H  -4.001177   0.827872   0.739747
C  -1.416744   0.222123   0.099818
H  -2.703061  -1.233324  -0.729022
H  -2.840329  -1.291965   1.011196
C  -0.131252  -0.711650  -0.018704
H  -1.406117   0.997223   0.980000
H  -1.413623   0.746344  -0.730928
H   0.033474  -1.393692   0.886423
H   0.763409  -0.165118  -0.296447
H  -0.227228  -1.302140  -0.856599
