butane_opt
 OpenBabel08242015413D

 14 13  0  0  0  0  0  0  0  0999 V2000
   -3.9417    0.2427   -0.0346 C   0  0  0  0  0  0  0  0  0  0  0  0
   -2.7112   -0.5971    0.0664 C   0  0  0  0  0  0  0  0  0  0  0  0
   -4.8664   -0.3774    0.0385 H   0  0  0  0  0  0  0  0  0  0  0  0
   -3.9817    0.9197   -0.9655 H   0  0  0  0  0  0  0  0  0  0  0  0
   -3.9525    0.9002    0.8209 H   0  0  0  0  0  0  0  0  0  0  0  0
   -1.4242    0.2022    0.0861 C   0  0  0  0  0  0  0  0  0  0  0  0
   -2.6892   -1.1999   -0.7301 H   0  0  0  0  0  0  0  0  0  0  0  0
   -2.8146   -1.2405    0.9906 H   0  0  0  0  0  0  0  0  0  0  0  0
   -0.1255   -0.7085   -0.0208 C   0  0  0  0  0  0  0  0  0  0  0  0
   -1.3654    0.9037    0.9341 H   0  0  0  0  0  0  0  0  0  0  0  0
   -1.4567    0.7784   -0.7685 H   0  0  0  0  0  0  0  0  0  0  0  0
    0.0312   -1.3523    0.9117 H   0  0  0  0  0  0  0  0  0  0  0  0
    0.7767   -0.1808   -0.1259 H   0  0  0  0  0  0  0  0  0  0  0  0
   -0.2585   -1.2961   -0.8210 H   0  0  0  0  0  0  0  0  0  0  0  0
  1  3  1  0  0  0  0
  1  2  1  0  0  0  0
  1  5  1  0  0  0  0
  2  6  1  0  0  0  0
  2  8  1  0  0  0  0
  4  1  1  0  0  0  0
  6 10  1  0  0  0  0
  7  2  1  0  0  0  0
  9  6  1  0  0  0  0
  9 12  1  0  0  0  0
 11  6  1  0  0  0  0
 13  9  1  0  0  0  0
 14  9  1  0  0  0  0
M  END
$$$$
