butane_opt
 OpenBabel08242015413D

 14 13  0  0  0  0  0  0  0  0999 V2000
   -3.9562    0.2931   -0.0101 C   0  0  0  0  0  0  0  0  0  0  0  0
   -2.6892   -0.6305    0.0939 C   0  0  0  0  0  0  0  0  0  0  0  0
   -4.8406   -0.2922    0.0412 H   0  0  0  0  0  0  0  0  0  0  0  0
   -3.8785    0.9747   -0.9685 H   0  0  0  0  0  0  0  0  0  0  0  0
   -3.9307    0.8529    0.7319 H   0  0  0  0  0  0  0  0  0  0  0  0
   -1.3905    0.1522    0.0359 C   0  0  0  0  0  0  0  0  0  0  0  0
   -2.6371   -1.2881   -0.7526 H   0  0  0  0  0  0  0  0  0  0  0  0
   -2.7514   -1.2964    0.9783 H   0  0  0  0  0  0  0  0  0  0  0  0
   -0.1820   -0.6757   -0.0099 C   0  0  0  0  0  0  0  0  0  0  0  0
   -1.3309    0.8314    0.8821 H   0  0  0  0  0  0  0  0  0  0  0  0
   -1.4172    0.7270   -0.7947 H   0  0  0  0  0  0  0  0  0  0  0  0
   -0.3131   -1.1220    0.7876 H   0  0  0  0  0  0  0  0  0  0  0  0
    0.7670   -0.0518    0.1335 H   0  0  0  0  0  0  0  0  0  0  0  0
   -0.0963   -1.4639   -0.9388 H   0  0  0  0  0  0  0  0  0  0  0  0
  1  3  1  0  0  0  0
  1  2  1  0  0  0  0
  1  5  1  0  0  0  0
  2  8  1  0  0  0  0
  4  1  1  0  0  0  0
  6  2  1  0  0  0  0
  6 10  1  0  0  0  0
  7  2  1  0  0  0  0
  9  6  1  0  0  0  0
  9 13  1  0  0  0  0
  9 12  1  0  0  0  0
 11  6  1  0  0  0  0
 14  9  1  0  0  0  0
M  END
$$$$
