14
butane_opt
C  -3.956197   0.293077  -0.010145
C  -2.689184  -0.630516   0.093866
H  -4.840637  -0.292181   0.041214
H  -3.878456   0.974742  -0.968515
H  -3.930665   0.852910   0.731879
C  -1.390481   0.152186   0.035923
H  -2.637111  -1.288118  -0.752575
H  -2.751427  -1.296406   0.978348
C  -0.181966  -0.675683  -0.009919
H  -1.330881   0.831364   0.882111
H  -1.417151   0.727010  -0.794697
H  -0.313090  -1.121963   0.787572
H   0.767027  -0.051777   0.133515
H  -0.096300  -1.463924  -0.938816
