14
butane_opt
C  -3.953931   0.257878  -0.043732
C  -2.711131  -0.595168   0.122189
H  -4.837114  -0.313015  -0.185149
H  -3.907535   0.758078  -0.931171
H  -4.040857   0.959033   0.846748
C  -1.394678   0.192338   0.051415
H  -2.739356  -1.162954  -0.659931
H  -2.848857  -1.337880   1.100618
C  -0.131618  -0.705242  -0.019984
H  -1.428980   0.910393   0.919375
H  -1.374067   0.752414  -0.751324
H  -0.082195  -1.232898   0.787903
H   0.757970  -0.145121  -0.047624
H  -0.217721  -1.460867  -0.972427
