butane_opt
 OpenBabel08242015413D

 14 13  0  0  0  0  0  0  0  0999 V2000
   -3.9433    0.2509   -0.0155 C   0  0  0  0  0  0  0  0  0  0  0  0
   -2.7106   -0.5959    0.0805 C   0  0  0  0  0  0  0  0  0  0  0  0
   -4.8911   -0.3942    0.1253 H   0  0  0  0  0  0  0  0  0  0  0  0
   -3.9900    0.8990   -0.9622 H   0  0  0  0  0  0  0  0  0  0  0  0
   -4.0102    0.8323    0.8173 H   0  0  0  0  0  0  0  0  0  0  0  0
   -1.3899    0.2157    0.0311 C   0  0  0  0  0  0  0  0  0  0  0  0
   -2.6817   -1.2944   -0.7606 H   0  0  0  0  0  0  0  0  0  0  0  0
   -2.8320   -1.2573    0.9793 H   0  0  0  0  0  0  0  0  0  0  0  0
   -0.1493   -0.7119    0.0131 C   0  0  0  0  0  0  0  0  0  0  0  0
   -1.3715    0.8606    0.8878 H   0  0  0  0  0  0  0  0  0  0  0  0
   -1.4229    0.9076   -0.8877 H   0  0  0  0  0  0  0  0  0  0  0  0
   -0.0887   -1.1840    0.7659 H   0  0  0  0  0  0  0  0  0  0  0  0
    0.6730   -0.2063    0.1492 H   0  0  0  0  0  0  0  0  0  0  0  0
   -0.0710   -1.5546   -0.9936 H   0  0  0  0  0  0  0  0  0  0  0  0
  1  2  1  0  0  0  0
  1  3  1  0  0  0  0
  1  5  1  0  0  0  0
  2  8  1  0  0  0  0
  4  1  1  0  0  0  0
  6  2  1  0  0  0  0
  6 10  1  0  0  0  0
  7  2  1  0  0  0  0
  9  6  1  0  0  0  0
  9 13  1  0  0  0  0
  9 12  1  0  0  0  0
 11  6  1  0  0  0  0
 14  9  1  0  0  0  0
M  END
$$$$
