butane_opt
 OpenBabel08242015413D

 14 13  0  0  0  0  0  0  0  0999 V2000
   -3.9654    0.2684    0.0800 C   0  0  0  0  0  0  0  0  0  0  0  0
   -2.6980   -0.6243   -0.0293 C   0  0  0  0  0  0  0  0  0  0  0  0
   -4.8495   -0.2724    0.2525 H   0  0  0  0  0  0  0  0  0  0  0  0
   -4.0655    1.0033   -0.8951 H   0  0  0  0  0  0  0  0  0  0  0  0
   -3.9675    0.8729    0.9183 H   0  0  0  0  0  0  0  0  0  0  0  0
   -1.4111    0.1593   -0.0413 C   0  0  0  0  0  0  0  0  0  0  0  0
   -2.7504   -1.3791   -0.9338 H   0  0  0  0  0  0  0  0  0  0  0  0
   -2.7072   -1.1618    0.7945 H   0  0  0  0  0  0  0  0  0  0  0  0
   -0.1413   -0.6792    0.0918 C   0  0  0  0  0  0  0  0  0  0  0  0
   -1.4142    0.8441    0.8189 H   0  0  0  0  0  0  0  0  0  0  0  0
   -1.3115    0.8420   -1.0449 H   0  0  0  0  0  0  0  0  0  0  0  0
   -0.1654   -1.2988    0.9607 H   0  0  0  0  0  0  0  0  0  0  0  0
    0.8540   -0.0399    0.1336 H   0  0  0  0  0  0  0  0  0  0  0  0
   -0.0741   -1.3539   -0.7754 H   0  0  0  0  0  0  0  0  0  0  0  0
  1  3  1  0  0  0  0
  1  5  1  0  0  0  0
  2  1  1  0  0  0  0
  2  8  1  0  0  0  0
  4  1  1  0  0  0  0
  6  2  1  0  0  0  0
  6  9  1  0  0  0  0
  6 10  1  0  0  0  0
  7  2  1  0  0  0  0
  9 13  1  0  0  0  0
  9 12  1  0  0  0  0
 11  6  1  0  0  0  0
 14  9  1  0  0  0  0
M  END
$$$$
