butane_opt
 OpenBabel08242015413D

 14 13  0  0  0  0  0  0  0  0999 V2000
   -3.9491    0.2767    0.0522 C   0  0  0  0  0  0  0  0  0  0  0  0
   -2.7102   -0.6213   -0.0110 C   0  0  0  0  0  0  0  0  0  0  0  0
   -4.8547   -0.3075    0.2843 H   0  0  0  0  0  0  0  0  0  0  0  0
   -4.1507    1.0337   -0.9076 H   0  0  0  0  0  0  0  0  0  0  0  0
   -3.8283    0.8513    0.8779 H   0  0  0  0  0  0  0  0  0  0  0  0
   -1.3865    0.1638   -0.0243 C   0  0  0  0  0  0  0  0  0  0  0  0
   -2.7068   -1.3422   -0.9066 H   0  0  0  0  0  0  0  0  0  0  0  0
   -2.7712   -1.2245    0.8107 H   0  0  0  0  0  0  0  0  0  0  0  0
   -0.1469   -0.6783    0.0737 C   0  0  0  0  0  0  0  0  0  0  0  0
   -1.4153    0.8312    0.8191 H   0  0  0  0  0  0  0  0  0  0  0  0
   -1.3759    0.7514   -0.9005 H   0  0  0  0  0  0  0  0  0  0  0  0
   -0.1866   -1.3157    0.9712 H   0  0  0  0  0  0  0  0  0  0  0  0
    0.7205   -0.0651    0.1304 H   0  0  0  0  0  0  0  0  0  0  0  0
   -0.1473   -1.3656   -0.8265 H   0  0  0  0  0  0  0  0  0  0  0  0
  1  3  1  0  0  0  0
  1  5  1  0  0  0  0
  2  1  1  0  0  0  0
  2  8  1  0  0  0  0
  4  1  1  0  0  0  0
  6  2  1  0  0  0  0
  6  9  1  0  0  0  0
  6 10  1  0  0  0  0
  7  2  1  0  0  0  0
  9 13  1  0  0  0  0
  9 12  1  0  0  0  0
 11  6  1  0  0  0  0
 14  9  1  0  0  0  0
M  END
$$$$
