butane_opt
 OpenBabel08242015413D

 14 13  0  0  0  0  0  0  0  0999 V2000
   -3.9428    0.2804    0.0748 C   0  0  0  0  0  0  0  0  0  0  0  0
   -2.6777   -0.6141   -0.0421 C   0  0  0  0  0  0  0  0  0  0  0  0
   -4.8111   -0.2766    0.1847 H   0  0  0  0  0  0  0  0  0  0  0  0
   -4.0868    0.8889   -0.7995 H   0  0  0  0  0  0  0  0  0  0  0  0
   -3.8008    0.9310    0.9440 H   0  0  0  0  0  0  0  0  0  0  0  0
   -1.4066    0.1476   -0.0434 C   0  0  0  0  0  0  0  0  0  0  0  0
   -2.7414   -1.3064   -0.8978 H   0  0  0  0  0  0  0  0  0  0  0  0
   -2.7353   -1.2831    0.8801 H   0  0  0  0  0  0  0  0  0  0  0  0
   -0.1744   -0.6711    0.0869 C   0  0  0  0  0  0  0  0  0  0  0  0
   -1.4611    0.7825    0.7739 H   0  0  0  0  0  0  0  0  0  0  0  0
   -1.3842    0.7358   -0.9653 H   0  0  0  0  0  0  0  0  0  0  0  0
   -0.2662   -1.2750    0.9877 H   0  0  0  0  0  0  0  0  0  0  0  0
    0.7891   -0.0363    0.1020 H   0  0  0  0  0  0  0  0  0  0  0  0
   -0.1286   -1.3155   -0.6846 H   0  0  0  0  0  0  0  0  0  0  0  0
  1  3  1  0  0  0  0
  1  5  1  0  0  0  0
  2  1  1  0  0  0  0
  2  8  1  0  0  0  0
  4  1  1  0  0  0  0
  6  2  1  0  0  0  0
  6  9  1  0  0  0  0
  6 10  1  0  0  0  0
  7  2  1  0  0  0  0
  9 13  1  0  0  0  0
  9 12  1  0  0  0  0
 11  6  1  0  0  0  0
 14  9  1  0  0  0  0
M  END
$$$$
