14
butane_opt
C  -3.936594   0.286982  -0.056878
C  -2.688245  -0.644889   0.091848
H  -4.835619  -0.313276   0.126564
H  -3.973849   0.906895  -0.999985
H  -3.956496   0.902279   0.775888
C  -1.387458   0.177747   0.093248
H  -2.589422  -1.236744  -0.742047
H  -2.770394  -1.298124   1.014104
C  -0.186843  -0.674713  -0.029866
H  -1.364178   0.939966   0.997428
H  -1.418734   0.708453  -0.738572
H  -0.118064  -1.379182   0.923139
H   0.702758  -0.079814  -0.160624
H  -0.311501  -1.363417  -0.927948
