butane_opt
 OpenBabel08242015413D

 14 13  0  0  0  0  0  0  0  0999 V2000
   -3.9302    0.2772    0.0616 C   0  0  0  0  0  0  0  0  0  0  0  0
   -2.7128   -0.6198    0.0268 C   0  0  0  0  0  0  0  0  0  0  0  0
   -4.8399   -0.3380   -0.2000 H   0  0  0  0  0  0  0  0  0  0  0  0
   -3.9647    0.6428   -0.6902 H   0  0  0  0  0  0  0  0  0  0  0  0
   -3.9754    1.1456    1.0519 H   0  0  0  0  0  0  0  0  0  0  0  0
   -1.4147    0.1799   -0.0530 C   0  0  0  0  0  0  0  0  0  0  0  0
   -2.7599   -1.3640   -0.9026 H   0  0  0  0  0  0  0  0  0  0  0  0
   -2.6759   -1.2095    0.8470 H   0  0  0  0  0  0  0  0  0  0  0  0
   -0.1564   -0.6974    0.0755 C   0  0  0  0  0  0  0  0  0  0  0  0
   -1.4170    0.7996    0.7314 H   0  0  0  0  0  0  0  0  0  0  0  0
   -1.3245    0.9149   -1.0285 H   0  0  0  0  0  0  0  0  0  0  0  0
   -0.2086   -1.4110    1.0447 H   0  0  0  0  0  0  0  0  0  0  0  0
    0.8356   -0.0441    0.0112 H   0  0  0  0  0  0  0  0  0  0  0  0
   -0.1305   -1.2849   -0.7307 H   0  0  0  0  0  0  0  0  0  0  0  0
  1  5  1  0  0  0  0
  2  1  1  0  0  0  0
  2  8  1  0  0  0  0
  3  1  1  0  0  0  0
  4  1  1  0  0  0  0
  6  2  1  0  0  0  0
  6  9  1  0  0  0  0
  6 10  1  0  0  0  0
  7  2  1  0  0  0  0
  9 12  1  0  0  0  0
 11  6  1  0  0  0  0
 13  9  1  0  0  0  0
 14  9  1  0  0  0  0
M  END
$$$$
