butane_opt
 OpenBabel08242015413D

 14 13  0  0  0  0  0  0  0  0999 V2000
   -3.9537    0.2786    0.0446 C   0  0  0  0  0  0  0  0  0  0  0  0
   -2.7052   -0.6509    0.0195 C   0  0  0  0  0  0  0  0  0  0  0  0
   -4.8395   -0.2635   -0.0179 H   0  0  0  0  0  0  0  0  0  0  0  0
   -4.0314    0.7821   -0.7692 H   0  0  0  0  0  0  0  0  0  0  0  0
   -3.9881    1.0661    1.0010 H   0  0  0  0  0  0  0  0  0  0  0  0
   -1.4032    0.1892   -0.0330 C   0  0  0  0  0  0  0  0  0  0  0  0
   -2.7166   -1.3770   -0.8881 H   0  0  0  0  0  0  0  0  0  0  0  0
   -2.6924   -1.2577    0.8588 H   0  0  0  0  0  0  0  0  0  0  0  0
   -0.1530   -0.6831    0.0659 C   0  0  0  0  0  0  0  0  0  0  0  0
   -1.3500    0.7936    0.8111 H   0  0  0  0  0  0  0  0  0  0  0  0
   -1.4024    0.9205   -1.0212 H   0  0  0  0  0  0  0  0  0  0  0  0
   -0.0888   -1.3132    0.9900 H   0  0  0  0  0  0  0  0  0  0  0  0
    0.7828   -0.0939    0.0822 H   0  0  0  0  0  0  0  0  0  0  0  0
   -0.1303   -1.3252   -0.7443 H   0  0  0  0  0  0  0  0  0  0  0  0
  1  5  1  0  0  0  0
  2  1  1  0  0  0  0
  2  8  1  0  0  0  0
  3  1  1  0  0  0  0
  4  1  1  0  0  0  0
  6  2  1  0  0  0  0
  6  9  1  0  0  0  0
  6 10  1  0  0  0  0
  7  2  1  0  0  0  0
  9 13  1  0  0  0  0
  9 12  1  0  0  0  0
 11  6  1  0  0  0  0
 14  9  1  0  0  0  0
M  END
$$$$
