butane_opt
 OpenBabel08242015413D

 14 13  0  0  0  0  0  0  0  0999 V2000
   -3.9412    0.2392    0.0504 C   0  0  0  0  0  0  0  0  0  0  0  0
   -2.7227   -0.5951    0.0097 C   0  0  0  0  0  0  0  0  0  0  0  0
   -4.7990   -0.3006   -0.0650 H   0  0  0  0  0  0  0  0  0  0  0  0
   -3.9700    0.7573   -0.7505 H   0  0  0  0  0  0  0  0  0  0  0  0
   -3.9115    1.0259    0.9523 H   0  0  0  0  0  0  0  0  0  0  0  0
   -1.4055    0.2055   -0.0134 C   0  0  0  0  0  0  0  0  0  0  0  0
   -2.7533   -1.3891   -0.9228 H   0  0  0  0  0  0  0  0  0  0  0  0
   -2.7235   -1.0430    0.7938 H   0  0  0  0  0  0  0  0  0  0  0  0
   -0.1538   -0.7194    0.0573 C   0  0  0  0  0  0  0  0  0  0  0  0
   -1.4113    0.8411    0.8500 H   0  0  0  0  0  0  0  0  0  0  0  0
   -1.3347    0.8863   -0.9468 H   0  0  0  0  0  0  0  0  0  0  0  0
   -0.0442   -1.5418    1.1164 H   0  0  0  0  0  0  0  0  0  0  0  0
    0.7469   -0.1360   -0.1909 H   0  0  0  0  0  0  0  0  0  0  0  0
   -0.1454   -1.1353   -0.6187 H   0  0  0  0  0  0  0  0  0  0  0  0
  1  5  1  0  0  0  0
  2  1  1  0  0  0  0
  2  8  1  0  0  0  0
  3  1  1  0  0  0  0
  4  1  1  0  0  0  0
  6  2  1  0  0  0  0
  6  9  1  0  0  0  0
  6 10  1  0  0  0  0
  7  2  1  0  0  0  0
  9 12  1  0  0  0  0
 11  6  1  0  0  0  0
 13  9  1  0  0  0  0
 14  9  1  0  0  0  0
M  END
$$$$
