14
butane_opt
C  -3.930872   0.249402  -0.042999
C  -2.708822  -0.617501   0.086117
H  -4.885162  -0.330470  -0.029457
H  -3.983633   0.947261  -0.990016
H  -3.977136   0.818778   0.765523
C  -1.419216   0.222687   0.113805
H  -2.688568  -1.282964  -0.747932
H  -2.834053  -1.216147   0.904275
C  -0.139857  -0.711453  -0.024243
H  -1.326016   0.909249   0.970886
H  -1.537116   0.852136  -0.781218
H   0.071017  -1.440407   0.912964
H   0.776227  -0.134139  -0.268968
H  -0.254396  -1.311461  -0.881335
