butane_opt
 OpenBabel08242015413D

 14 13  0  0  0  0  0  0  0  0999 V2000
   -3.9371    0.2560   -0.0026 C   0  0  0  0  0  0  0  0  0  0  0  0
   -2.7052   -0.5960    0.0436 C   0  0  0  0  0  0  0  0  0  0  0  0
   -4.8976   -0.3706    0.1821 H   0  0  0  0  0  0  0  0  0  0  0  0
   -3.9760    0.9809   -0.9426 H   0  0  0  0  0  0  0  0  0  0  0  0
   -3.8044    0.8142    0.8125 H   0  0  0  0  0  0  0  0  0  0  0  0
   -1.4057    0.1911    0.0335 C   0  0  0  0  0  0  0  0  0  0  0  0
   -2.7026   -1.2884   -0.8130 H   0  0  0  0  0  0  0  0  0  0  0  0
   -2.7565   -1.2606    0.9401 H   0  0  0  0  0  0  0  0  0  0  0  0
   -0.1619   -0.7062    0.0194 C   0  0  0  0  0  0  0  0  0  0  0  0
   -1.4359    0.9190    0.9205 H   0  0  0  0  0  0  0  0  0  0  0  0
   -1.3983    0.8036   -0.8373 H   0  0  0  0  0  0  0  0  0  0  0  0
   -0.1388   -1.2617    0.8832 H   0  0  0  0  0  0  0  0  0  0  0  0
    0.7280   -0.1548    0.0114 H   0  0  0  0  0  0  0  0  0  0  0  0
   -0.1216   -1.3938   -0.8637 H   0  0  0  0  0  0  0  0  0  0  0  0
  1  2  1  0  0  0  0
  1  3  1  0  0  0  0
  1  5  1  0  0  0  0
  2  8  1  0  0  0  0
  4  1  1  0  0  0  0
  6  2  1  0  0  0  0
  6 10  1  0  0  0  0
  7  2  1  0  0  0  0
  9  6  1  0  0  0  0
  9 12  1  0  0  0  0
 11  6  1  0  0  0  0
 13  9  1  0  0  0  0
 14  9  1  0  0  0  0
M  END
$$$$
