14
butane_opt
C  -3.941204   0.239225   0.050366
C  -2.722692  -0.595074   0.009738
H  -4.798965  -0.300609  -0.065009
H  -3.970001   0.757313  -0.750474
H  -3.911547   1.025868   0.952323
C  -1.405453   0.205474  -0.013403
H  -2.753260  -1.389140  -0.922756
H  -2.723523  -1.042952   0.793833
C  -0.153814  -0.719390   0.057299
H  -1.411305   0.841082   0.850036
H  -1.334719   0.886308  -0.946760
H  -0.044186  -1.541787   1.116381
H   0.746857  -0.135960  -0.190856
H  -0.145420  -1.135275  -0.618687
