butane_opt
 OpenBabel08242015413D

 14 13  0  0  0  0  0  0  0  0999 V2000
   -3.9257    0.2589    0.0564 C   0  0  0  0  0  0  0  0  0  0  0  0
   -2.7050   -0.5862   -0.0119 C   0  0  0  0  0  0  0  0  0  0  0  0
   -4.9456   -0.4050    0.1333 H   0  0  0  0  0  0  0  0  0  0  0  0
   -3.9566    0.8404   -0.8305 H   0  0  0  0  0  0  0  0  0  0  0  0
   -3.8459    0.9191    0.9227 H   0  0  0  0  0  0  0  0  0  0  0  0
   -1.4085    0.1824   -0.0046 C   0  0  0  0  0  0  0  0  0  0  0  0
   -2.7638   -1.3652   -0.9333 H   0  0  0  0  0  0  0  0  0  0  0  0
   -2.7433   -1.0939    0.7772 H   0  0  0  0  0  0  0  0  0  0  0  0
   -0.1688   -0.7078    0.0590 C   0  0  0  0  0  0  0  0  0  0  0  0
   -1.4518    0.7835    0.7894 H   0  0  0  0  0  0  0  0  0  0  0  0
   -1.3641    0.8572   -0.9220 H   0  0  0  0  0  0  0  0  0  0  0  0
   -0.0697   -1.4771    1.0464 H   0  0  0  0  0  0  0  0  0  0  0  0
    0.7197   -0.1395   -0.0264 H   0  0  0  0  0  0  0  0  0  0  0  0
   -0.1058   -1.1623   -0.6768 H   0  0  0  0  0  0  0  0  0  0  0  0
  1  3  1  0  0  0  0
  1  5  1  0  0  0  0
  2  6  1  0  0  0  0
  2  1  1  0  0  0  0
  2  8  1  0  0  0  0
  4  1  1  0  0  0  0
  6  9  1  0  0  0  0
  6 10  1  0  0  0  0
  7  2  1  0  0  0  0
  9 12  1  0  0  0  0
 11  6  1  0  0  0  0
 13  9  1  0  0  0  0
 14  9  1  0  0  0  0
M  END
$$$$
