butane_opt
 OpenBabel08242015413D

 14 13  0  0  0  0  0  0  0  0999 V2000
   -3.9122    0.2478   -0.0383 C   0  0  0  0  0  0  0  0  0  0  0  0
   -2.7039   -0.6030    0.1224 C   0  0  0  0  0  0  0  0  0  0  0  0
   -4.7911   -0.2871   -0.1566 H   0  0  0  0  0  0  0  0  0  0  0  0
   -3.8316    0.7933   -0.9293 H   0  0  0  0  0  0  0  0  0  0  0  0
   -4.0751    0.9774    0.8046 H   0  0  0  0  0  0  0  0  0  0  0  0
   -1.4177    0.1894    0.0656 C   0  0  0  0  0  0  0  0  0  0  0  0
   -2.6814   -1.2031   -0.6883 H   0  0  0  0  0  0  0  0  0  0  0  0
   -2.7910   -1.2269    1.0109 H   0  0  0  0  0  0  0  0  0  0  0  0
   -0.1781   -0.7127   -0.0198 C   0  0  0  0  0  0  0  0  0  0  0  0
   -1.3971    0.8604    0.9161 H   0  0  0  0  0  0  0  0  0  0  0  0
   -1.3598    0.8812   -0.8320 H   0  0  0  0  0  0  0  0  0  0  0  0
   -0.0656   -1.2186    0.7547 H   0  0  0  0  0  0  0  0  0  0  0  0
    0.7277   -0.0792   -0.0842 H   0  0  0  0  0  0  0  0  0  0  0  0
   -0.2099   -1.4395   -0.9220 H   0  0  0  0  0  0  0  0  0  0  0  0
  1  2  1  0  0  0  0
  1  5  1  0  0  0  0
  2  8  1  0  0  0  0
  3  1  1  0  0  0  0
  4  1  1  0  0  0  0
  6  2  1  0  0  0  0
  6 10  1  0  0  0  0
  7  2  1  0  0  0  0
  9  6  1  0  0  0  0
  9 12  1  0  0  0  0
 11  6  1  0  0  0  0
 13  9  1  0  0  0  0
 14  9  1  0  0  0  0
M  END
$$$$
