14
butane_opt
C  -3.946867   0.256023   0.068289
C  -2.682399  -0.612122   0.018083
H  -4.858881  -0.312128   0.033284
H  -3.934476   0.872461  -0.850384
H  -3.980250   0.934073   0.874855
C  -1.408616   0.193469  -0.048681
H  -2.710358  -1.302901  -0.852037
H  -2.645269  -1.224564   0.934033
C  -0.181607  -0.697240   0.061375
H  -1.385588   0.779669   0.729955
H  -1.342570   0.829833  -0.967881
H  -0.231703  -1.167413   0.855033
H   0.722867  -0.113791   0.321018
H  -0.016003  -1.454739  -0.831844
