butane_opt
 OpenBabel08242015413D

 14 13  0  0  0  0  0  0  0  0999 V2000
   -3.9627    0.2709    0.0433 C   0  0  0  0  0  0  0  0  0  0  0  0
   -2.6877   -0.6308    0.0112 C   0  0  0  0  0  0  0  0  0  0  0  0
   -4.8244   -0.2983   -0.0155 H   0  0  0  0  0  0  0  0  0  0  0  0
   -3.9984    0.8520   -0.8323 H   0  0  0  0  0  0  0  0  0  0  0  0
   -3.9832    0.9744    0.9466 H   0  0  0  0  0  0  0  0  0  0  0  0
   -1.3985    0.1856   -0.0098 C   0  0  0  0  0  0  0  0  0  0  0  0
   -2.7243   -1.3848   -0.8891 H   0  0  0  0  0  0  0  0  0  0  0  0
   -2.6975   -1.1972    0.8857 H   0  0  0  0  0  0  0  0  0  0  0  0
   -0.1635   -0.6834    0.0600 C   0  0  0  0  0  0  0  0  0  0  0  0
   -1.3971    0.8535    0.8471 H   0  0  0  0  0  0  0  0  0  0  0  0
   -1.3370    0.8211   -0.9149 H   0  0  0  0  0  0  0  0  0  0  0  0
   -0.0804   -1.4401    1.0287 H   0  0  0  0  0  0  0  0  0  0  0  0
    0.7487   -0.0721   -0.1208 H   0  0  0  0  0  0  0  0  0  0  0  0
   -0.1877   -1.2778   -0.7439 H   0  0  0  0  0  0  0  0  0  0  0  0
  1  5  1  0  0  0  0
  2  1  1  0  0  0  0
  2  8  1  0  0  0  0
  3  1  1  0  0  0  0
  4  1  1  0  0  0  0
  6  2  1  0  0  0  0
  6  9  1  0  0  0  0
  6 10  1  0  0  0  0
  7  2  1  0  0  0  0
  9 12  1  0  0  0  0
 11  6  1  0  0  0  0
 13  9  1  0  0  0  0
 14  9  1  0  0  0  0
M  END
$$$$
