14
butane_opt
C  -3.960895   0.281455   0.078535
C  -2.722597  -0.630869  -0.015517
H  -4.848118  -0.250348   0.048470
H  -4.108421   0.861646  -0.785093
H  -3.950781   1.020131   1.009307
C  -1.380862   0.161704  -0.072712
H  -2.727373  -1.287809  -0.846250
H  -2.671501  -1.318228   0.855987
C  -0.153478  -0.682214   0.094186
H  -1.442782   0.779379   0.746080
H  -1.274589   0.794889  -0.984998
H  -0.175268  -1.170074   0.927945
H   0.805421  -0.060870   0.190355
H  -0.028979  -1.383074  -0.744929
