butane_opt
 OpenBabel08242015413D

 14 13  0  0  0  0  0  0  0  0999 V2000
   -3.9762    0.2446   -0.0196 C   0  0  0  0  0  0  0  0  0  0  0  0
   -2.6994   -0.5960    0.0671 C   0  0  0  0  0  0  0  0  0  0  0  0
   -4.9126   -0.4030    0.2800 H   0  0  0  0  0  0  0  0  0  0  0  0
   -3.9985    1.1757   -1.1059 H   0  0  0  0  0  0  0  0  0  0  0  0
   -3.9531    0.6855    0.6628 H   0  0  0  0  0  0  0  0  0  0  0  0
   -1.4000    0.2045    0.0748 C   0  0  0  0  0  0  0  0  0  0  0  0
   -2.6966   -1.2983   -0.7778 H   0  0  0  0  0  0  0  0  0  0  0  0
   -2.7228   -1.1833    0.9347 H   0  0  0  0  0  0  0  0  0  0  0  0
   -0.1436   -0.7103   -0.0138 C   0  0  0  0  0  0  0  0  0  0  0  0
   -1.3838    0.9053    0.9476 H   0  0  0  0  0  0  0  0  0  0  0  0
   -1.3549    0.7405   -0.7863 H   0  0  0  0  0  0  0  0  0  0  0  0
   -0.0316   -1.1818    0.7974 H   0  0  0  0  0  0  0  0  0  0  0  0
    0.7753   -0.1298    0.0464 H   0  0  0  0  0  0  0  0  0  0  0  0
   -0.1044   -1.4904   -0.9004 H   0  0  0  0  0  0  0  0  0  0  0  0
  1  2  1  0  0  0  0
  1  3  1  0  0  0  0
  1  5  1  0  0  0  0
  2  6  1  0  0  0  0
  2  8  1  0  0  0  0
  4  1  1  0  0  0  0
  6 10  1  0  0  0  0
  7  2  1  0  0  0  0
  9 13  1  0  0  0  0
  9  6  1  0  0  0  0
  9 12  1  0  0  0  0
 11  6  1  0  0  0  0
 14  9  1  0  0  0  0
M  END
$$$$
