butane_opt
 OpenBabel08242015413D

 14 13  0  0  0  0  0  0  0  0999 V2000
   -3.9609    0.2815    0.0785 C   0  0  0  0  0  0  0  0  0  0  0  0
   -2.7226   -0.6309   -0.0155 C   0  0  0  0  0  0  0  0  0  0  0  0
   -4.8481   -0.2503    0.0485 H   0  0  0  0  0  0  0  0  0  0  0  0
   -4.1084    0.8616   -0.7851 H   0  0  0  0  0  0  0  0  0  0  0  0
   -3.9508    1.0201    1.0093 H   0  0  0  0  0  0  0  0  0  0  0  0
   -1.3809    0.1617   -0.0727 C   0  0  0  0  0  0  0  0  0  0  0  0
   -2.7274   -1.2878   -0.8462 H   0  0  0  0  0  0  0  0  0  0  0  0
   -2.6715   -1.3182    0.8560 H   0  0  0  0  0  0  0  0  0  0  0  0
   -0.1535   -0.6822    0.0942 C   0  0  0  0  0  0  0  0  0  0  0  0
   -1.4428    0.7794    0.7461 H   0  0  0  0  0  0  0  0  0  0  0  0
   -1.2746    0.7949   -0.9850 H   0  0  0  0  0  0  0  0  0  0  0  0
   -0.1753   -1.1701    0.9279 H   0  0  0  0  0  0  0  0  0  0  0  0
    0.8054   -0.0609    0.1904 H   0  0  0  0  0  0  0  0  0  0  0  0
   -0.0290   -1.3831   -0.7449 H   0  0  0  0  0  0  0  0  0  0  0  0
  1  5  1  0  0  0  0
  2  1  1  0  0  0  0
  2  8  1  0  0  0  0
  3  1  1  0  0  0  0
  4  1  1  0  0  0  0
  6  2  1  0  0  0  0
  6  9  1  0  0  0  0
  6 10  1  0  0  0  0
  7  2  1  0  0  0  0
  9 13  1  0  0  0  0
  9 12  1  0  0  0  0
 11  6  1  0  0  0  0
 14  9  1  0  0  0  0
M  END
$$$$
