butane_opt
 OpenBabel08242015413D

 14 13  0  0  0  0  0  0  0  0999 V2000
   -3.9563    0.2559    0.0430 C   0  0  0  0  0  0  0  0  0  0  0  0
   -2.7193   -0.6018    0.0324 C   0  0  0  0  0  0  0  0  0  0  0  0
   -4.9010   -0.3518   -0.1549 H   0  0  0  0  0  0  0  0  0  0  0  0
   -3.8832    0.5802   -0.6852 H   0  0  0  0  0  0  0  0  0  0  0  0
   -3.9724    1.1433    1.0710 H   0  0  0  0  0  0  0  0  0  0  0  0
   -1.4023    0.1970   -0.0365 C   0  0  0  0  0  0  0  0  0  0  0  0
   -2.7722   -1.2891   -0.8577 H   0  0  0  0  0  0  0  0  0  0  0  0
   -2.8018   -1.1525    0.8737 H   0  0  0  0  0  0  0  0  0  0  0  0
   -0.1393   -0.7076    0.0733 C   0  0  0  0  0  0  0  0  0  0  0  0
   -1.4167    0.7695    0.7514 H   0  0  0  0  0  0  0  0  0  0  0  0
   -1.3223    1.0031   -1.0461 H   0  0  0  0  0  0  0  0  0  0  0  0
   -0.0645   -1.3815    0.9657 H   0  0  0  0  0  0  0  0  0  0  0  0
    0.7376   -0.1928   -0.0434 H   0  0  0  0  0  0  0  0  0  0  0  0
   -0.0243   -1.3375   -0.7512 H   0  0  0  0  0  0  0  0  0  0  0  0
  1  5  1  0  0  0  0
  2  1  1  0  0  0  0
  2  8  1  0  0  0  0
  3  1  1  0  0  0  0
  4  1  1  0  0  0  0
  6  2  1  0  0  0  0
  6  9  1  0  0  0  0
  6 10  1  0  0  0  0
  7  2  1  0  0  0  0
  9 12  1  0  0  0  0
 11  6  1  0  0  0  0
 13  9  1  0  0  0  0
 14  9  1  0  0  0  0
M  END
$$$$
