14
butane_opt
C  -3.945440   0.279984  -0.022661
C  -2.673710  -0.627263   0.110523
H  -4.885895  -0.359051  -0.199984
H  -3.850446   0.800393  -0.894867
H  -4.070144   1.113071   0.901105
C  -1.393754   0.163236   0.026075
H  -2.691159  -1.298540  -0.708706
H  -2.737486  -1.287451   1.050548
C  -0.195232  -0.678710  -0.010675
H  -1.341843   0.894211   0.954020
H  -1.421839   0.741713  -0.857382
H  -0.193017  -1.299542   0.857012
H   0.775017  -0.042174  -0.048084
H  -0.118849  -1.371924  -0.849643
