butane_opt
 OpenBabel08242015413D

 14 13  0  0  0  0  0  0  0  0999 V2000
   -3.9538    0.2941    0.0044 C   0  0  0  0  0  0  0  0  0  0  0  0
   -2.6847   -0.6319    0.0653 C   0  0  0  0  0  0  0  0  0  0  0  0
   -4.8460   -0.3039    0.1211 H   0  0  0  0  0  0  0  0  0  0  0  0
   -3.9234    0.8979   -0.9263 H   0  0  0  0  0  0  0  0  0  0  0  0
   -4.0130    0.8337    0.8258 H   0  0  0  0  0  0  0  0  0  0  0  0
   -1.3911    0.1465    0.0157 C   0  0  0  0  0  0  0  0  0  0  0  0
   -2.6669   -1.3022   -0.7988 H   0  0  0  0  0  0  0  0  0  0  0  0
   -2.6438   -1.2471    0.9202 H   0  0  0  0  0  0  0  0  0  0  0  0
   -0.1747   -0.6610    0.0178 C   0  0  0  0  0  0  0  0  0  0  0  0
   -1.3262    0.7734    0.8194 H   0  0  0  0  0  0  0  0  0  0  0  0
   -1.4700    0.8467   -0.8893 H   0  0  0  0  0  0  0  0  0  0  0  0
   -0.2823   -1.1401    0.8572 H   0  0  0  0  0  0  0  0  0  0  0  0
    0.7207   -0.0823    0.2063 H   0  0  0  0  0  0  0  0  0  0  0  0
   -0.1286   -1.5215   -0.9409 H   0  0  0  0  0  0  0  0  0  0  0  0
  1  2  1  0  0  0  0
  1  3  1  0  0  0  0
  1  5  1  0  0  0  0
  2  8  1  0  0  0  0
  4  1  1  0  0  0  0
  6  9  1  0  0  0  0
  6  2  1  0  0  0  0
  6 10  1  0  0  0  0
  7  2  1  0  0  0  0
  9 13  1  0  0  0  0
  9 12  1  0  0  0  0
 11  6  1  0  0  0  0
 14  9  1  0  0  0  0
M  END
$$$$
