14
butane_opt
C  -3.950102   0.252379  -0.025684
C  -2.726371  -0.596324   0.116977
H  -4.849570  -0.389104   0.101489
H  -3.880726   1.008534  -1.050332
H  -4.035079   0.863894   0.762028
C  -1.396442   0.197431   0.036791
H  -2.721389  -1.324169  -0.757378
H  -2.855091  -1.230628   1.003234
C  -0.134855  -0.711252  -0.012436
H  -1.339868   0.917324   0.901010
H  -1.476619   0.807551  -0.865638
H  -0.137646  -1.111992   0.746652
H   0.777262  -0.115777   0.188231
H  -0.013084  -1.600256  -0.992133
