butane_opt
 OpenBabel08242015413D

 14 13  0  0  0  0  0  0  0  0999 V2000
   -3.9622    0.2444   -0.0456 C   0  0  0  0  0  0  0  0  0  0  0  0
   -2.6973   -0.6013    0.1083 C   0  0  0  0  0  0  0  0  0  0  0  0
   -4.8695   -0.3639   -0.1288 H   0  0  0  0  0  0  0  0  0  0  0  0
   -3.8550    0.8183   -0.9480 H   0  0  0  0  0  0  0  0  0  0  0  0
   -4.0277    0.9543    0.9116 H   0  0  0  0  0  0  0  0  0  0  0  0
   -1.4058    0.2238    0.0644 C   0  0  0  0  0  0  0  0  0  0  0  0
   -2.6670   -1.2138   -0.6836 H   0  0  0  0  0  0  0  0  0  0  0  0
   -2.8804   -1.3695    1.1163 H   0  0  0  0  0  0  0  0  0  0  0  0
   -0.1430   -0.7040   -0.0240 C   0  0  0  0  0  0  0  0  0  0  0  0
   -1.3487    0.8987    0.9259 H   0  0  0  0  0  0  0  0  0  0  0  0
   -1.4326    0.8593   -0.7812 H   0  0  0  0  0  0  0  0  0  0  0  0
   -0.0487   -1.2915    0.8233 H   0  0  0  0  0  0  0  0  0  0  0  0
    0.6842   -0.1937   -0.0515 H   0  0  0  0  0  0  0  0  0  0  0  0
   -0.0728   -1.5314   -0.9887 H   0  0  0  0  0  0  0  0  0  0  0  0
  1  2  1  0  0  0  0
  1  5  1  0  0  0  0
  2  8  1  0  0  0  0
  3  1  1  0  0  0  0
  4  1  1  0  0  0  0
  6  2  1  0  0  0  0
  6 10  1  0  0  0  0
  7  2  1  0  0  0  0
  9  6  1  0  0  0  0
  9 12  1  0  0  0  0
 11  6  1  0  0  0  0
 13  9  1  0  0  0  0
 14  9  1  0  0  0  0
M  END
$$$$
