14
butane_opt
C  -3.909630   0.247575   0.063931
C  -2.717133  -0.596453  -0.022970
H  -4.853724  -0.383357   0.206376
H  -4.038410   1.019660  -0.903689
H  -3.773884   0.818669   0.914728
C  -1.423569   0.195479  -0.019348
H  -2.795837  -1.333155  -0.946604
H  -2.645177  -1.161902   0.855488
C  -0.166787  -0.720660   0.079849
H  -1.484502   0.846028   0.785374
H  -1.375067   0.933876  -0.990869
H  -0.146368  -1.257283   0.962445
H   0.785886  -0.071645   0.118820
H  -0.087841  -1.398460  -0.806013
