butane_opt
 OpenBabel08242015413D

 14 13  0  0  0  0  0  0  0  0999 V2000
   -3.9310    0.2355    0.0637 C   0  0  0  0  0  0  0  0  0  0  0  0
   -2.7061   -0.5840    0.0094 C   0  0  0  0  0  0  0  0  0  0  0  0
   -4.8724   -0.3216   -0.0312 H   0  0  0  0  0  0  0  0  0  0  0  0
   -3.8981    0.7308   -0.7650 H   0  0  0  0  0  0  0  0  0  0  0  0
   -3.9723    0.9867    1.0008 H   0  0  0  0  0  0  0  0  0  0  0  0
   -1.4354    0.2012   -0.0576 C   0  0  0  0  0  0  0  0  0  0  0  0
   -2.7829   -1.2804   -0.8517 H   0  0  0  0  0  0  0  0  0  0  0  0
   -2.7087   -1.1802    0.8741 H   0  0  0  0  0  0  0  0  0  0  0  0
   -0.1439   -0.7190    0.0760 C   0  0  0  0  0  0  0  0  0  0  0  0
   -1.4325    0.9099    0.7630 H   0  0  0  0  0  0  0  0  0  0  0  0
   -1.3845    0.8453   -0.9708 H   0  0  0  0  0  0  0  0  0  0  0  0
   -0.1103   -1.3437    0.9669 H   0  0  0  0  0  0  0  0  0  0  0  0
    0.7670   -0.1141    0.1041 H   0  0  0  0  0  0  0  0  0  0  0  0
   -0.0289   -1.3193   -0.7292 H   0  0  0  0  0  0  0  0  0  0  0  0
  1  5  1  0  0  0  0
  2  1  1  0  0  0  0
  2  8  1  0  0  0  0
  3  1  1  0  0  0  0
  4  1  1  0  0  0  0
  6  2  1  0  0  0  0
  6  9  1  0  0  0  0
  6 10  1  0  0  0  0
  7  2  1  0  0  0  0
  9 13  1  0  0  0  0
  9 12  1  0  0  0  0
 11  6  1  0  0  0  0
 14  9  1  0  0  0  0
M  END
$$$$
