butane_opt
 OpenBabel08242015413D

 14 13  0  0  0  0  0  0  0  0999 V2000
   -3.9200    0.2359   -0.0509 C   0  0  0  0  0  0  0  0  0  0  0  0
   -2.7062   -0.5821    0.1144 C   0  0  0  0  0  0  0  0  0  0  0  0
   -4.7929   -0.3101   -0.1416 H   0  0  0  0  0  0  0  0  0  0  0  0
   -3.8171    0.7721   -0.8814 H   0  0  0  0  0  0  0  0  0  0  0  0
   -4.0016    0.9725    0.8724 H   0  0  0  0  0  0  0  0  0  0  0  0
   -1.4246    0.1971    0.0550 C   0  0  0  0  0  0  0  0  0  0  0  0
   -2.6153   -1.1506   -0.6129 H   0  0  0  0  0  0  0  0  0  0  0  0
   -2.8714   -1.2943    1.1229 H   0  0  0  0  0  0  0  0  0  0  0  0
   -0.1659   -0.7215   -0.0296 C   0  0  0  0  0  0  0  0  0  0  0  0
   -1.3278    0.9466    0.9857 H   0  0  0  0  0  0  0  0  0  0  0  0
   -1.4473    0.8069   -0.8192 H   0  0  0  0  0  0  0  0  0  0  0  0
   -0.1098   -1.2335    0.8215 H   0  0  0  0  0  0  0  0  0  0  0  0
    0.7428   -0.1238   -0.0028 H   0  0  0  0  0  0  0  0  0  0  0  0
   -0.1778   -1.4229   -0.9671 H   0  0  0  0  0  0  0  0  0  0  0  0
  1  2  1  0  0  0  0
  1  5  1  0  0  0  0
  2  8  1  0  0  0  0
  3  1  1  0  0  0  0
  4  1  1  0  0  0  0
  6  2  1  0  0  0  0
  6 10  1  0  0  0  0
  7  2  1  0  0  0  0
  9 13  1  0  0  0  0
  9  6  1  0  0  0  0
  9 12  1  0  0  0  0
 11  6  1  0  0  0  0
 14  9  1  0  0  0  0
M  END
$$$$
