14
butane_opt
C  -3.948654   0.256905   0.005903
C  -2.704616  -0.618183   0.035043
H  -4.852880  -0.366164   0.254705
H  -4.073542   1.005325  -1.006022
H  -3.889818   0.785563   0.769105
C  -1.395499   0.211157   0.023009
H  -2.726763  -1.291237  -0.830631
H  -2.745785  -1.216736   0.893085
C  -0.157381  -0.712062   0.020576
H  -1.334236   0.955124   0.937209
H  -1.524853   0.764406  -0.759191
H  -0.051802  -1.279807   0.910144
H   0.735054  -0.160015   0.060629
H  -0.079622  -1.318916  -0.803524
