14
butane_opt
C  -3.959013   0.248298   0.070088
C  -2.734178  -0.590828  -0.014973
H  -4.874230  -0.345965   0.119439
H  -3.981239   0.961038  -0.893196
H  -3.862147   0.800520   0.845232
C  -1.394231   0.204484  -0.019168
H  -2.804813  -1.323336  -0.873773
H  -2.644114  -1.144334   0.798833
C  -0.135114  -0.707131   0.075946
H  -1.389791   0.849473   0.789175
H  -1.377464   0.838719  -0.927041
H  -0.122566  -1.395496   0.969324
H   0.755145  -0.147986   0.047570
H  -0.055514  -1.420044  -0.794303
