butane_opt
 OpenBabel08242015413D

 14 13  0  0  0  0  0  0  0  0999 V2000
   -3.9568    0.2599    0.0165 C   0  0  0  0  0  0  0  0  0  0  0  0
   -2.6946   -0.5952    0.0590 C   0  0  0  0  0  0  0  0  0  0  0  0
   -4.8692   -0.3578    0.0598 H   0  0  0  0  0  0  0  0  0  0  0  0
   -4.0255    0.8211   -0.8702 H   0  0  0  0  0  0  0  0  0  0  0  0
   -3.9310    0.8909    0.8638 H   0  0  0  0  0  0  0  0  0  0  0  0
   -1.4004    0.1860   -0.0120 C   0  0  0  0  0  0  0  0  0  0  0  0
   -2.7696   -1.2827   -0.7892 H   0  0  0  0  0  0  0  0  0  0  0  0
   -2.6708   -1.2788    0.9483 H   0  0  0  0  0  0  0  0  0  0  0  0
   -0.1485   -0.6928    0.0402 C   0  0  0  0  0  0  0  0  0  0  0  0
   -1.4296    0.8337    0.7942 H   0  0  0  0  0  0  0  0  0  0  0  0
   -1.3812    0.8837   -0.9912 H   0  0  0  0  0  0  0  0  0  0  0  0
   -0.1859   -1.1677    0.8503 H   0  0  0  0  0  0  0  0  0  0  0  0
    0.7434   -0.1220    0.2840 H   0  0  0  0  0  0  0  0  0  0  0  0
   -0.0989   -1.5945   -0.9702 H   0  0  0  0  0  0  0  0  0  0  0  0
  1  2  1  0  0  0  0
  1  3  1  0  0  0  0
  1  5  1  0  0  0  0
  2  8  1  0  0  0  0
  4  1  1  0  0  0  0
  6  9  1  0  0  0  0
  6  2  1  0  0  0  0
  6 10  1  0  0  0  0
  7  2  1  0  0  0  0
  9 13  1  0  0  0  0
  9 12  1  0  0  0  0
 11  6  1  0  0  0  0
 14  9  1  0  0  0  0
M  END
$$$$
