butane_opt
 OpenBabel08242015413D

 14 13  0  0  0  0  0  0  0  0999 V2000
   -3.9590    0.2483    0.0701 C   0  0  0  0  0  0  0  0  0  0  0  0
   -2.7342   -0.5908   -0.0150 C   0  0  0  0  0  0  0  0  0  0  0  0
   -4.8742   -0.3460    0.1194 H   0  0  0  0  0  0  0  0  0  0  0  0
   -3.9812    0.9610   -0.8932 H   0  0  0  0  0  0  0  0  0  0  0  0
   -3.8621    0.8005    0.8452 H   0  0  0  0  0  0  0  0  0  0  0  0
   -1.3942    0.2045   -0.0192 C   0  0  0  0  0  0  0  0  0  0  0  0
   -2.8048   -1.3233   -0.8738 H   0  0  0  0  0  0  0  0  0  0  0  0
   -2.6441   -1.1443    0.7988 H   0  0  0  0  0  0  0  0  0  0  0  0
   -0.1351   -0.7071    0.0759 C   0  0  0  0  0  0  0  0  0  0  0  0
   -1.3898    0.8495    0.7892 H   0  0  0  0  0  0  0  0  0  0  0  0
   -1.3775    0.8387   -0.9270 H   0  0  0  0  0  0  0  0  0  0  0  0
   -0.1226   -1.3955    0.9693 H   0  0  0  0  0  0  0  0  0  0  0  0
    0.7551   -0.1480    0.0476 H   0  0  0  0  0  0  0  0  0  0  0  0
   -0.0555   -1.4200   -0.7943 H   0  0  0  0  0  0  0  0  0  0  0  0
  1  3  1  0  0  0  0
  1  5  1  0  0  0  0
  2  1  1  0  0  0  0
  2  8  1  0  0  0  0
  4  1  1  0  0  0  0
  6  2  1  0  0  0  0
  6  9  1  0  0  0  0
  6 10  1  0  0  0  0
  7  2  1  0  0  0  0
  9 12  1  0  0  0  0
 11  6  1  0  0  0  0
 13  9  1  0  0  0  0
 14  9  1  0  0  0  0
M  END
$$$$
