butane_opt
 OpenBabel08242015413D

 14 13  0  0  0  0  0  0  0  0999 V2000
   -3.9487    0.2569    0.0059 C   0  0  0  0  0  0  0  0  0  0  0  0
   -2.7046   -0.6182    0.0350 C   0  0  0  0  0  0  0  0  0  0  0  0
   -4.8529   -0.3662    0.2547 H   0  0  0  0  0  0  0  0  0  0  0  0
   -4.0735    1.0053   -1.0060 H   0  0  0  0  0  0  0  0  0  0  0  0
   -3.8898    0.7856    0.7691 H   0  0  0  0  0  0  0  0  0  0  0  0
   -1.3955    0.2112    0.0230 C   0  0  0  0  0  0  0  0  0  0  0  0
   -2.7268   -1.2912   -0.8306 H   0  0  0  0  0  0  0  0  0  0  0  0
   -2.7458   -1.2167    0.8931 H   0  0  0  0  0  0  0  0  0  0  0  0
   -0.1574   -0.7121    0.0206 C   0  0  0  0  0  0  0  0  0  0  0  0
   -1.3342    0.9551    0.9372 H   0  0  0  0  0  0  0  0  0  0  0  0
   -1.5249    0.7644   -0.7592 H   0  0  0  0  0  0  0  0  0  0  0  0
   -0.0518   -1.2798    0.9101 H   0  0  0  0  0  0  0  0  0  0  0  0
    0.7351   -0.1600    0.0606 H   0  0  0  0  0  0  0  0  0  0  0  0
   -0.0796   -1.3189   -0.8035 H   0  0  0  0  0  0  0  0  0  0  0  0
  1  2  1  0  0  0  0
  1  3  1  0  0  0  0
  1  5  1  0  0  0  0
  2  8  1  0  0  0  0
  4  1  1  0  0  0  0
  6  2  1  0  0  0  0
  6 10  1  0  0  0  0
  7  2  1  0  0  0  0
  9  6  1  0  0  0  0
  9 13  1  0  0  0  0
  9 12  1  0  0  0  0
 11  6  1  0  0  0  0
 14  9  1  0  0  0  0
M  END
$$$$
