14
butane_opt
C  -3.913279   0.250341   0.064857
C  -2.698708  -0.605607   0.006807
H  -4.826860  -0.334622  -0.120707
H  -3.786447   0.639316  -0.672934
H  -4.042894   1.059407   1.025035
C  -1.431905   0.212605  -0.041782
H  -2.764430  -1.332608  -0.907413
H  -2.755129  -1.141161   0.877322
C  -0.169754  -0.710830   0.075262
H  -1.456672   0.779085   0.711752
H  -1.443309   0.915265  -0.992907
H  -0.086325  -1.411231   1.033983
H   0.767037  -0.146758  -0.038247
H  -0.072798  -1.258558  -0.696100
