butane_opt
 OpenBabel08242015413D

 14 13  0  0  0  0  0  0  0  0999 V2000
   -3.9339    0.2837    0.0166 C   0  0  0  0  0  0  0  0  0  0  0  0
   -2.6906   -0.6486    0.0727 C   0  0  0  0  0  0  0  0  0  0  0  0
   -4.7727   -0.2368    0.0585 H   0  0  0  0  0  0  0  0  0  0  0  0
   -3.9450    0.9712   -0.9412 H   0  0  0  0  0  0  0  0  0  0  0  0
   -3.9907    0.9130    0.8596 H   0  0  0  0  0  0  0  0  0  0  0  0
   -1.4019    0.1573   -0.0101 C   0  0  0  0  0  0  0  0  0  0  0  0
   -2.7029   -1.3097   -0.7790 H   0  0  0  0  0  0  0  0  0  0  0  0
   -2.7867   -1.1979    0.8871 H   0  0  0  0  0  0  0  0  0  0  0  0
   -0.1859   -0.6681    0.0254 C   0  0  0  0  0  0  0  0  0  0  0  0
   -1.3625    0.8123    0.8112 H   0  0  0  0  0  0  0  0  0  0  0  0
   -1.4081    0.8185   -0.8933 H   0  0  0  0  0  0  0  0  0  0  0  0
   -0.1971   -1.1424    0.8581 H   0  0  0  0  0  0  0  0  0  0  0  0
    0.7915   -0.0608    0.2543 H   0  0  0  0  0  0  0  0  0  0  0  0
   -0.1267   -1.5184   -0.9358 H   0  0  0  0  0  0  0  0  0  0  0  0
  1  3  1  0  0  0  0
  1  2  1  0  0  0  0
  1  5  1  0  0  0  0
  2  8  1  0  0  0  0
  4  1  1  0  0  0  0
  6  9  1  0  0  0  0
  6  2  1  0  0  0  0
  6 10  1  0  0  0  0
  7  2  1  0  0  0  0
  9 13  1  0  0  0  0
  9 12  1  0  0  0  0
 11  6  1  0  0  0  0
 14  9  1  0  0  0  0
M  END
$$$$
