butane_opt
 OpenBabel08242015413D

 14 13  0  0  0  0  0  0  0  0999 V2000
   -3.9650    0.2520    0.0158 C   0  0  0  0  0  0  0  0  0  0  0  0
   -2.7197   -0.5908    0.0330 C   0  0  0  0  0  0  0  0  0  0  0  0
   -4.9083   -0.4320   -0.0162 H   0  0  0  0  0  0  0  0  0  0  0  0
   -4.0067    0.7881   -0.8169 H   0  0  0  0  0  0  0  0  0  0  0  0
   -3.8524    0.9856    0.9415 H   0  0  0  0  0  0  0  0  0  0  0  0
   -1.3796    0.2118    0.0082 C   0  0  0  0  0  0  0  0  0  0  0  0
   -2.7116   -1.2826   -0.8318 H   0  0  0  0  0  0  0  0  0  0  0  0
   -2.8047   -1.2550    0.9083 H   0  0  0  0  0  0  0  0  0  0  0  0
   -0.1463   -0.7269    0.0370 C   0  0  0  0  0  0  0  0  0  0  0  0
   -1.4354    0.9390    0.8784 H   0  0  0  0  0  0  0  0  0  0  0  0
   -1.3898    0.8798   -0.8943 H   0  0  0  0  0  0  0  0  0  0  0  0
   -0.0142   -1.3918    0.9877 H   0  0  0  0  0  0  0  0  0  0  0  0
    0.7439   -0.1605   -0.1021 H   0  0  0  0  0  0  0  0  0  0  0  0
   -0.1105   -1.2997   -0.7314 H   0  0  0  0  0  0  0  0  0  0  0  0
  1  2  1  0  0  0  0
  1  5  1  0  0  0  0
  2  8  1  0  0  0  0
  3  1  1  0  0  0  0
  4  1  1  0  0  0  0
  6  2  1  0  0  0  0
  6  9  1  0  0  0  0
  6 10  1  0  0  0  0
  7  2  1  0  0  0  0
  9 12  1  0  0  0  0
 11  6  1  0  0  0  0
 13  9  1  0  0  0  0
 14  9  1  0  0  0  0
M  END
$$$$
