butane_opt
 OpenBabel08242015413D

 14 13  0  0  0  0  0  0  0  0999 V2000
   -3.9409    0.2770   -0.0095 C   0  0  0  0  0  0  0  0  0  0  0  0
   -2.6880   -0.6363    0.0886 C   0  0  0  0  0  0  0  0  0  0  0  0
   -4.7594   -0.2091   -0.2153 H   0  0  0  0  0  0  0  0  0  0  0  0
   -3.8460    0.7585   -0.8010 H   0  0  0  0  0  0  0  0  0  0  0  0
   -4.1036    1.0914    0.9616 H   0  0  0  0  0  0  0  0  0  0  0  0
   -1.3823    0.1626    0.0291 C   0  0  0  0  0  0  0  0  0  0  0  0
   -2.7492   -1.3169   -0.7972 H   0  0  0  0  0  0  0  0  0  0  0  0
   -2.7152   -1.2667    0.9804 H   0  0  0  0  0  0  0  0  0  0  0  0
   -0.1941   -0.6743    0.0039 C   0  0  0  0  0  0  0  0  0  0  0  0
   -1.3399    0.7791    0.8767 H   0  0  0  0  0  0  0  0  0  0  0  0
   -1.4695    0.8852   -0.9385 H   0  0  0  0  0  0  0  0  0  0  0  0
   -0.2023   -1.3155    0.9392 H   0  0  0  0  0  0  0  0  0  0  0  0
    0.7770   -0.0755   -0.0421 H   0  0  0  0  0  0  0  0  0  0  0  0
   -0.1724   -1.3361   -0.8533 H   0  0  0  0  0  0  0  0  0  0  0  0
  1  2  1  0  0  0  0
  1  5  1  0  0  0  0
  2  8  1  0  0  0  0
  3  1  1  0  0  0  0
  4  1  1  0  0  0  0
  6  2  1  0  0  0  0
  6 10  1  0  0  0  0
  7  2  1  0  0  0  0
  9  6  1  0  0  0  0
  9 12  1  0  0  0  0
 11  6  1  0  0  0  0
 13  9  1  0  0  0  0
 14  9  1  0  0  0  0
M  END
$$$$
