14
butane_opt
C  -3.957770   0.273198  -0.000467
C  -2.708706  -0.627211   0.041486
H  -4.841374  -0.277617   0.187925
H  -4.017716   1.008356  -0.981915
H  -3.953152   0.869884   0.825162
C  -1.397891   0.168001   0.036566
H  -2.717150  -1.328322  -0.798084
H  -2.722915  -1.239926   0.923952
C  -0.151379  -0.684151   0.021763
H  -1.365147   0.884510   0.917822
H  -1.326725   0.788975  -0.849221
H  -0.105594  -1.286316   0.904589
H   0.773012  -0.060333  -0.008345
H  -0.167868  -1.379257  -0.886523
