14
butane_opt
C  -3.941636   0.271380  -0.008263
C  -2.689090  -0.635362   0.039045
H  -4.840059  -0.288066   0.107473
H  -4.073154   1.021145  -0.980103
H  -3.870997   0.889794   0.858592
C  -1.407029   0.172456   0.055475
H  -2.622939  -1.300883  -0.786712
H  -2.683205  -1.290663   0.881570
C  -0.183484  -0.676194   0.009030
H  -1.314421   0.866664   0.939399
H  -1.426264   0.741312  -0.781985
H  -0.050010  -1.338643   0.963172
H   0.704977  -0.069988  -0.118609
H  -0.202034  -1.273746  -0.790197
