14
butane_opt
C  -3.934695   0.242711  -0.020295
C  -2.714261  -0.599956   0.061693
H  -4.839202  -0.384186  -0.012151
H  -4.060626   0.909014  -0.917041
H  -3.973258   0.936537   0.833797
C  -1.392225   0.221371   0.073558
H  -2.677347  -1.321482  -0.820177
H  -2.856629  -1.205480   0.935214
C  -0.146450  -0.708959   0.005187
H  -1.390872   0.892842   0.908465
H  -1.482424   0.778009  -0.810478
H   0.068176  -1.478377   0.984770
H   0.723338  -0.178262  -0.268622
H  -0.267558  -1.279361  -0.816980
