butane_opt
 OpenBabel08242015413D

 14 13  0  0  0  0  0  0  0  0999 V2000
   -3.9347    0.2427   -0.0203 C   0  0  0  0  0  0  0  0  0  0  0  0
   -2.7143   -0.6000    0.0617 C   0  0  0  0  0  0  0  0  0  0  0  0
   -4.8392   -0.3842   -0.0122 H   0  0  0  0  0  0  0  0  0  0  0  0
   -4.0606    0.9090   -0.9170 H   0  0  0  0  0  0  0  0  0  0  0  0
   -3.9733    0.9365    0.8338 H   0  0  0  0  0  0  0  0  0  0  0  0
   -1.3922    0.2214    0.0736 C   0  0  0  0  0  0  0  0  0  0  0  0
   -2.6773   -1.3215   -0.8202 H   0  0  0  0  0  0  0  0  0  0  0  0
   -2.8566   -1.2055    0.9352 H   0  0  0  0  0  0  0  0  0  0  0  0
   -0.1464   -0.7090    0.0052 C   0  0  0  0  0  0  0  0  0  0  0  0
   -1.3909    0.8928    0.9085 H   0  0  0  0  0  0  0  0  0  0  0  0
   -1.4824    0.7780   -0.8105 H   0  0  0  0  0  0  0  0  0  0  0  0
    0.0682   -1.4784    0.9848 H   0  0  0  0  0  0  0  0  0  0  0  0
    0.7233   -0.1783   -0.2686 H   0  0  0  0  0  0  0  0  0  0  0  0
   -0.2676   -1.2794   -0.8170 H   0  0  0  0  0  0  0  0  0  0  0  0
  1  3  1  0  0  0  0
  1  2  1  0  0  0  0
  1  5  1  0  0  0  0
  2  6  1  0  0  0  0
  2  8  1  0  0  0  0
  4  1  1  0  0  0  0
  6 10  1  0  0  0  0
  7  2  1  0  0  0  0
  9  6  1  0  0  0  0
  9 12  1  0  0  0  0
 11  6  1  0  0  0  0
 13  9  1  0  0  0  0
 14  9  1  0  0  0  0
M  END
$$$$
