14
butane_opt
C  -3.951841   0.241877   0.041577
C  -2.712526  -0.595952   0.027440
H  -4.805770  -0.287881  -0.187236
H  -3.849710   0.653953  -0.742815
H  -4.029122   1.035074   0.943356
C  -1.399835   0.218797  -0.002864
H  -2.846145  -1.244089  -0.837699
H  -2.765472  -1.194524   0.898587
C  -0.139376  -0.719288   0.054891
H  -1.420379   0.817322   0.769924
H  -1.425345   0.892421  -0.943162
H  -0.043903  -1.427906   0.992630
H   0.740587  -0.136386  -0.143363
H  -0.139837  -1.327623  -0.741283
