butane_opt
 OpenBabel08242015413D

 14 13  0  0  0  0  0  0  0  0999 V2000
   -3.9328    0.2665    0.0106 C   0  0  0  0  0  0  0  0  0  0  0  0
   -2.7012   -0.6259    0.0230 C   0  0  0  0  0  0  0  0  0  0  0  0
   -4.8509   -0.3669    0.2691 H   0  0  0  0  0  0  0  0  0  0  0  0
   -4.0318    1.1344   -1.0121 H   0  0  0  0  0  0  0  0  0  0  0  0
   -3.8714    0.7006    0.7207 H   0  0  0  0  0  0  0  0  0  0  0  0
   -1.4031    0.2048    0.0338 C   0  0  0  0  0  0  0  0  0  0  0  0
   -2.7616   -1.2574   -0.7894 H   0  0  0  0  0  0  0  0  0  0  0  0
   -2.7882   -1.2436    0.9381 H   0  0  0  0  0  0  0  0  0  0  0  0
   -0.1561   -0.7082    0.0178 C   0  0  0  0  0  0  0  0  0  0  0  0
   -1.3912    0.9567    0.9925 H   0  0  0  0  0  0  0  0  0  0  0  0
   -1.4049    0.7253   -0.7764 H   0  0  0  0  0  0  0  0  0  0  0  0
   -0.2014   -1.2336    0.8831 H   0  0  0  0  0  0  0  0  0  0  0  0
    0.7104   -0.1431    0.0296 H   0  0  0  0  0  0  0  0  0  0  0  0
   -0.1081   -1.3917   -0.8771 H   0  0  0  0  0  0  0  0  0  0  0  0
  1  2  1  0  0  0  0
  1  3  1  0  0  0  0
  1  5  1  0  0  0  0
  2  6  1  0  0  0  0
  2  8  1  0  0  0  0
  4  1  1  0  0  0  0
  6 10  1  0  0  0  0
  7  2  1  0  0  0  0
  9 13  1  0  0  0  0
  9  6  1  0  0  0  0
  9 12  1  0  0  0  0
 11  6  1  0  0  0  0
 14  9  1  0  0  0  0
M  END
$$$$
