butane_opt
 OpenBabel08242015413D

 14 13  0  0  0  0  0  0  0  0999 V2000
   -3.9315    0.2581   -0.0180 C   0  0  0  0  0  0  0  0  0  0  0  0
   -2.6817   -0.6002    0.0503 C   0  0  0  0  0  0  0  0  0  0  0  0
   -4.8951   -0.4017    0.1600 H   0  0  0  0  0  0  0  0  0  0  0  0
   -4.0417    1.0541   -1.0014 H   0  0  0  0  0  0  0  0  0  0  0  0
   -3.8447    0.7392    0.7418 H   0  0  0  0  0  0  0  0  0  0  0  0
   -1.4212    0.1844    0.0592 C   0  0  0  0  0  0  0  0  0  0  0  0
   -2.6531   -1.2383   -0.7530 H   0  0  0  0  0  0  0  0  0  0  0  0
   -2.7901   -1.2790    0.9845 H   0  0  0  0  0  0  0  0  0  0  0  0
   -0.1600   -0.7054    0.0008 C   0  0  0  0  0  0  0  0  0  0  0  0
   -1.4514    0.9736    1.0035 H   0  0  0  0  0  0  0  0  0  0  0  0
   -1.4148    0.7445   -0.7279 H   0  0  0  0  0  0  0  0  0  0  0  0
   -0.1057   -1.2519    0.8022 H   0  0  0  0  0  0  0  0  0  0  0  0
    0.7654   -0.1097   -0.0789 H   0  0  0  0  0  0  0  0  0  0  0  0
   -0.2464   -1.3443   -0.8299 H   0  0  0  0  0  0  0  0  0  0  0  0
  1  2  1  0  0  0  0
  1  3  1  0  0  0  0
  1  5  1  0  0  0  0
  2  6  1  0  0  0  0
  2  8  1  0  0  0  0
  4  1  1  0  0  0  0
  6 10  1  0  0  0  0
  7  2  1  0  0  0  0
  9  6  1  0  0  0  0
  9 12  1  0  0  0  0
 11  6  1  0  0  0  0
 13  9  1  0  0  0  0
 14  9  1  0  0  0  0
M  END
$$$$
