14
butane_opt
C  -3.944408   0.281683   0.063838
C  -2.691324  -0.621288   0.000348
H  -4.891785  -0.361651   0.133291
H  -3.961130   0.870059  -0.823742
H  -3.851307   0.981619   0.913736
C  -1.393241   0.159889  -0.044500
H  -2.665976  -1.326558  -0.869407
H  -2.692288  -1.251424   0.889618
C  -0.187340  -0.690697   0.082437
H  -1.449341   0.745701   0.769599
H  -1.359920   0.927562  -1.040216
H  -0.268123  -1.120830   0.873265
H   0.743575  -0.047825   0.210069
H  -0.043290  -1.445278  -0.850229
