14
butane_opt
C  -3.930572   0.253876  -0.025327
C  -2.700131  -0.587620   0.063601
H  -4.966952  -0.444303   0.197631
H  -3.957033   1.023003  -1.067282
H  -3.820001   0.736747   0.729787
C  -1.415016   0.204745   0.081585
H  -2.642889  -1.294979  -0.812429
H  -2.760594  -1.249314   0.931628
C  -0.153532  -0.703413   0.002372
H  -1.392005   0.875463   0.932918
H  -1.520151   0.785347  -0.773778
H  -0.038698  -1.297785   0.863435
H   0.723338  -0.165217  -0.110162
H  -0.247069  -1.452710  -0.932278
