14
butane_opt
C  -3.937875   0.263286  -0.021623
C  -2.694070  -0.591995   0.056886
H  -4.924363  -0.395804   0.274167
H  -4.007401   1.089258  -1.066137
H  -3.893807   0.616661   0.642380
C  -1.402888   0.177610   0.077804
H  -2.775039  -1.228363  -0.768119
H  -2.679855  -1.202799   0.945729
C  -0.167069  -0.699204  -0.015619
H  -1.349198   0.954950   1.017791
H  -1.417411   0.728143  -0.792251
H  -0.152453  -1.233883   0.848368
H   0.734534  -0.145686   0.018432
H  -0.128550  -1.456620  -0.894006
