14
butane_opt
C  -3.946576   0.263135   0.036645
C  -2.680281  -0.625089   0.035359
H  -4.840818  -0.295497  -0.080985
H  -3.986508   0.762436  -0.741204
H  -4.049408   1.098616   0.983295
C  -1.401790   0.189487  -0.026322
H  -2.777844  -1.291372  -0.855451
H  -2.751850  -1.309236   0.976249
C  -0.168386  -0.689464   0.044891
H  -1.415432   0.819224   0.784377
H  -1.388929   0.837523  -0.947132
H  -0.256396  -1.324315   0.953267
H   0.775986  -0.082863   0.103900
H   0.029021  -1.342210  -0.812486
