14
butane_opt
C  -3.950153   0.253742  -0.036654
C  -2.721580  -0.596126   0.097635
H  -4.902865  -0.423766  -0.120534
H  -3.791773   0.797776  -0.903045
H  -3.988640   1.009793   0.906805
C  -1.403109   0.198854   0.057424
H  -2.634732  -1.134644  -0.675132
H  -2.846608  -1.331098   1.073312
C  -0.146699  -0.712995  -0.025888
H  -1.362417   0.939148   0.955189
H  -1.405747   0.839818  -0.826207
H  -0.048892  -1.323066   0.860315
H   0.737119  -0.116147  -0.034306
H  -0.119568  -1.465237  -0.897618
