14
butane_opt
C  -3.965376   0.281921   0.062697
C  -2.693544  -0.639561  -0.014848
H  -4.894621  -0.268765   0.021526
H  -4.052050   0.880495  -0.826861
H  -3.997146   1.024013   0.994854
C  -1.381537   0.162405  -0.031514
H  -2.780298  -1.336357  -0.900959
H  -2.714213  -1.169338   0.798495
C  -0.151240  -0.679799   0.075142
H  -1.402361   0.873272   0.844958
H  -1.277152   0.725842  -0.851821
H  -0.157932  -1.475362   1.112651
H   0.777604  -0.069328  -0.197221
H  -0.220183  -1.151330  -0.641916
