14
butane_opt
C  -3.932769   0.266513   0.010596
C  -2.701203  -0.625916   0.022995
H  -4.850904  -0.366881   0.269118
H  -4.031819   1.134404  -1.012077
H  -3.871356   0.700570   0.720739
C  -1.403123   0.204792   0.033814
H  -2.761604  -1.257359  -0.789444
H  -2.788249  -1.243577   0.938125
C  -0.156092  -0.708232   0.017789
H  -1.391205   0.956654   0.992468
H  -1.404855   0.725295  -0.776401
H  -0.201388  -1.233586   0.883122
H   0.710383  -0.143112   0.029597
H  -0.108120  -1.391739  -0.877089
