butane_opt
 OpenBabel08242015413D

 14 13  0  0  0  0  0  0  0  0999 V2000
   -3.9300    0.2702   -0.0301 C   0  0  0  0  0  0  0  0  0  0  0  0
   -2.6862   -0.6179    0.0907 C   0  0  0  0  0  0  0  0  0  0  0  0
   -4.9086   -0.3193   -0.0677 H   0  0  0  0  0  0  0  0  0  0  0  0
   -3.8754    1.0382   -1.0509 H   0  0  0  0  0  0  0  0  0  0  0  0
   -3.9706    0.8660    0.7714 H   0  0  0  0  0  0  0  0  0  0  0  0
   -1.4081    0.1644    0.0944 C   0  0  0  0  0  0  0  0  0  0  0  0
   -2.6398   -1.3265   -0.7571 H   0  0  0  0  0  0  0  0  0  0  0  0
   -2.8001   -1.2822    0.9824 H   0  0  0  0  0  0  0  0  0  0  0  0
   -0.1814   -0.6775   -0.0207 C   0  0  0  0  0  0  0  0  0  0  0  0
   -1.3698    0.8874    0.9969 H   0  0  0  0  0  0  0  0  0  0  0  0
   -1.3819    0.7746   -0.7749 H   0  0  0  0  0  0  0  0  0  0  0  0
    0.0087   -1.3389    0.8538 H   0  0  0  0  0  0  0  0  0  0  0  0
    0.7019   -0.1123   -0.2137 H   0  0  0  0  0  0  0  0  0  0  0  0
   -0.3239   -1.3252   -0.9219 H   0  0  0  0  0  0  0  0  0  0  0  0
  1  2  1  0  0  0  0
  1  5  1  0  0  0  0
  2  6  1  0  0  0  0
  2  8  1  0  0  0  0
  3  1  1  0  0  0  0
  4  1  1  0  0  0  0
  6 10  1  0  0  0  0
  7  2  1  0  0  0  0
  9  6  1  0  0  0  0
  9 12  1  0  0  0  0
 11  6  1  0  0  0  0
 13  9  1  0  0  0  0
 14  9  1  0  0  0  0
M  END
$$$$
