14
butane_opt
C  -3.940065   0.282111   0.063366
C  -2.693319  -0.622409  -0.007144
H  -4.870873  -0.262166  -0.166278
H  -3.961114   0.662542  -0.702677
H  -3.988185   1.179080   1.056844
C  -1.403683   0.142014  -0.029240
H  -2.737627  -1.336511  -0.881622
H  -2.731775  -1.224133   0.893724
C  -0.158409  -0.672622   0.080341
H  -1.338699   0.726742   0.788847
H  -1.395799   0.899030  -1.043262
H  -0.214837  -1.410724   1.073584
H   0.764674  -0.062761  -0.131757
H  -0.210370  -1.192133  -0.698885
