14
butane_opt
C  -3.928928   0.244328   0.023595
C  -2.699325  -0.591310   0.030187
H  -4.866898  -0.352890  -0.128020
H  -3.892676   0.668358  -0.709965
H  -3.957463   1.068175   1.011491
C  -1.430364   0.203276  -0.007989
H  -2.720354  -1.212374  -0.823569
H  -2.678997  -1.256214   0.959092
C  -0.143687  -0.716268   0.038277
H  -1.418191   0.831739   0.791131
H  -1.446218   0.842006  -0.896395
H  -0.178866  -1.404973   1.010947
H   0.788898  -0.120382   0.004489
H  -0.206358  -1.230036  -0.755702
