butane_opt
 OpenBabel08242015413D

 14 13  0  0  0  0  0  0  0  0999 V2000
   -3.9157    0.2443    0.0795 C   0  0  0  0  0  0  0  0  0  0  0  0
   -2.7075   -0.5950   -0.0504 C   0  0  0  0  0  0  0  0  0  0  0  0
   -4.8159   -0.3539    0.1997 H   0  0  0  0  0  0  0  0  0  0  0  0
   -4.0983    0.9903   -0.8845 H   0  0  0  0  0  0  0  0  0  0  0  0
   -3.8532    0.9157    0.9557 H   0  0  0  0  0  0  0  0  0  0  0  0
   -1.4068    0.1940   -0.0395 C   0  0  0  0  0  0  0  0  0  0  0  0
   -2.7413   -1.2839   -0.8999 H   0  0  0  0  0  0  0  0  0  0  0  0
   -2.7066   -1.2845    0.8639 H   0  0  0  0  0  0  0  0  0  0  0  0
   -0.1793   -0.7114    0.0910 C   0  0  0  0  0  0  0  0  0  0  0  0
   -1.4707    0.8988    0.8320 H   0  0  0  0  0  0  0  0  0  0  0  0
   -1.3282    0.8365   -0.9101 H   0  0  0  0  0  0  0  0  0  0  0  0
   -0.1212   -1.3864    0.9704 H   0  0  0  0  0  0  0  0  0  0  0  0
    0.7626   -0.0647    0.0766 H   0  0  0  0  0  0  0  0  0  0  0  0
   -0.1286   -1.3124   -0.7335 H   0  0  0  0  0  0  0  0  0  0  0  0
  1  3  1  0  0  0  0
  1  5  1  0  0  0  0
  2  6  1  0  0  0  0
  2  1  1  0  0  0  0
  2  8  1  0  0  0  0
  4  1  1  0  0  0  0
  6  9  1  0  0  0  0
  6 10  1  0  0  0  0
  7  2  1  0  0  0  0
  9 12  1  0  0  0  0
 11  6  1  0  0  0  0
 13  9  1  0  0  0  0
 14  9  1  0  0  0  0
M  END
$$$$
