butane_opt
 OpenBabel08242015413D

 14 13  0  0  0  0  0  0  0  0999 V2000
   -3.9458    0.2687   -0.0211 C   0  0  0  0  0  0  0  0  0  0  0  0
   -2.7012   -0.6378    0.1100 C   0  0  0  0  0  0  0  0  0  0  0  0
   -4.7855   -0.2607   -0.2011 H   0  0  0  0  0  0  0  0  0  0  0  0
   -3.9359    0.8945   -0.9320 H   0  0  0  0  0  0  0  0  0  0  0  0
   -4.1463    1.0030    0.8415 H   0  0  0  0  0  0  0  0  0  0  0  0
   -1.3960    0.1849    0.0514 C   0  0  0  0  0  0  0  0  0  0  0  0
   -2.6818   -1.2984   -0.7608 H   0  0  0  0  0  0  0  0  0  0  0  0
   -2.7792   -1.2454    0.9712 H   0  0  0  0  0  0  0  0  0  0  0  0
   -0.1598   -0.6882   -0.0068 C   0  0  0  0  0  0  0  0  0  0  0  0
   -1.2732    0.8699    0.9452 H   0  0  0  0  0  0  0  0  0  0  0  0
   -1.3932    0.7983   -0.8663 H   0  0  0  0  0  0  0  0  0  0  0  0
   -0.0807   -1.3097    0.8790 H   0  0  0  0  0  0  0  0  0  0  0  0
    0.7824   -0.0907   -0.1055 H   0  0  0  0  0  0  0  0  0  0  0  0
   -0.2910   -1.3606   -0.9248 H   0  0  0  0  0  0  0  0  0  0  0  0
  1  2  1  0  0  0  0
  1  5  1  0  0  0  0
  2  8  1  0  0  0  0
  3  1  1  0  0  0  0
  4  1  1  0  0  0  0
  6  2  1  0  0  0  0
  6 10  1  0  0  0  0
  7  2  1  0  0  0  0
  9  6  1  0  0  0  0
  9 12  1  0  0  0  0
 11  6  1  0  0  0  0
 13  9  1  0  0  0  0
 14  9  1  0  0  0  0
M  END
$$$$
