butane_opt
 OpenBabel08242015413D

 14 13  0  0  0  0  0  0  0  0999 V2000
   -3.9401    0.2821    0.0634 C   0  0  0  0  0  0  0  0  0  0  0  0
   -2.6933   -0.6224   -0.0071 C   0  0  0  0  0  0  0  0  0  0  0  0
   -4.8709   -0.2622   -0.1663 H   0  0  0  0  0  0  0  0  0  0  0  0
   -3.9611    0.6625   -0.7027 H   0  0  0  0  0  0  0  0  0  0  0  0
   -3.9882    1.1791    1.0568 H   0  0  0  0  0  0  0  0  0  0  0  0
   -1.4037    0.1420   -0.0292 C   0  0  0  0  0  0  0  0  0  0  0  0
   -2.7376   -1.3365   -0.8816 H   0  0  0  0  0  0  0  0  0  0  0  0
   -2.7318   -1.2241    0.8937 H   0  0  0  0  0  0  0  0  0  0  0  0
   -0.1584   -0.6726    0.0803 C   0  0  0  0  0  0  0  0  0  0  0  0
   -1.3387    0.7267    0.7888 H   0  0  0  0  0  0  0  0  0  0  0  0
   -1.3958    0.8990   -1.0433 H   0  0  0  0  0  0  0  0  0  0  0  0
   -0.2148   -1.4107    1.0736 H   0  0  0  0  0  0  0  0  0  0  0  0
    0.7647   -0.0628   -0.1318 H   0  0  0  0  0  0  0  0  0  0  0  0
   -0.2104   -1.1921   -0.6989 H   0  0  0  0  0  0  0  0  0  0  0  0
  1  5  1  0  0  0  0
  2  1  1  0  0  0  0
  2  8  1  0  0  0  0
  3  1  1  0  0  0  0
  4  1  1  0  0  0  0
  6  2  1  0  0  0  0
  6  9  1  0  0  0  0
  6 10  1  0  0  0  0
  7  2  1  0  0  0  0
  9 12  1  0  0  0  0
 11  6  1  0  0  0  0
 13  9  1  0  0  0  0
 14  9  1  0  0  0  0
M  END
$$$$
