14
butane_opt
C  -3.956879   0.268504   0.048953
C  -2.704811  -0.624825  -0.006322
H  -4.854138  -0.319061   0.187509
H  -4.076262   0.937895  -0.862623
H  -3.930107   0.944223   0.906321
C  -1.397928   0.175718  -0.018992
H  -2.756644  -1.334071  -0.886700
H  -2.681619  -1.197264   0.844173
C  -0.140282  -0.681364   0.071993
H  -1.473908   0.814763   0.810523
H  -1.325139   0.796518  -0.927236
H  -0.147428  -1.327456   0.968172
H   0.772414  -0.107533   0.029355
H  -0.151786  -1.328181  -0.779517
