butane_opt
 OpenBabel08242015413D

 14 13  0  0  0  0  0  0  0  0999 V2000
   -3.9334    0.2659    0.0544 C   0  0  0  0  0  0  0  0  0  0  0  0
   -2.6881   -0.6288   -0.0318 C   0  0  0  0  0  0  0  0  0  0  0  0
   -4.8579   -0.3293    0.2547 H   0  0  0  0  0  0  0  0  0  0  0  0
   -4.1300    0.9544   -0.8754 H   0  0  0  0  0  0  0  0  0  0  0  0
   -3.8906    0.8181    0.8346 H   0  0  0  0  0  0  0  0  0  0  0  0
   -1.4006    0.1869   -0.0010 C   0  0  0  0  0  0  0  0  0  0  0  0
   -2.7076   -1.2736   -0.8787 H   0  0  0  0  0  0  0  0  0  0  0  0
   -2.6714   -1.2154    0.8472 H   0  0  0  0  0  0  0  0  0  0  0  0
   -0.1735   -0.6940    0.0686 C   0  0  0  0  0  0  0  0  0  0  0  0
   -1.5475    0.9101    0.8909 H   0  0  0  0  0  0  0  0  0  0  0  0
   -1.3270    0.8392   -0.8937 H   0  0  0  0  0  0  0  0  0  0  0  0
   -0.1653   -1.3525    0.9692 H   0  0  0  0  0  0  0  0  0  0  0  0
    0.7570   -0.1233   -0.0545 H   0  0  0  0  0  0  0  0  0  0  0  0
   -0.1282   -1.2630   -0.7549 H   0  0  0  0  0  0  0  0  0  0  0  0
  1  3  1  0  0  0  0
  1  5  1  0  0  0  0
  2  6  1  0  0  0  0
  2  1  1  0  0  0  0
  2  8  1  0  0  0  0
  4  1  1  0  0  0  0
  6  9  1  0  0  0  0
  6 10  1  0  0  0  0
  7  2  1  0  0  0  0
  9 12  1  0  0  0  0
 11  6  1  0  0  0  0
 13  9  1  0  0  0  0
 14  9  1  0  0  0  0
M  END
$$$$
