14
butane_opt
C  -3.953632   0.260691   0.027242
C  -2.704091  -0.617876   0.031937
H  -4.860365  -0.328837   0.051396
H  -4.013648   0.830720  -0.811868
H  -3.951977   0.981388   0.919522
C  -1.398504   0.196709  -0.011620
H  -2.750126  -1.305839  -0.852429
H  -2.724695  -1.240364   0.938285
C  -0.150019  -0.701335   0.053862
H  -1.404561   0.836041   0.790149
H  -1.420690   0.893856  -0.967361
H  -0.166451  -1.275121   0.917792
H   0.799406  -0.075963   0.094151
H  -0.058510  -1.448475  -0.856252
