butane_opt
 OpenBabel08242015413D

 14 13  0  0  0  0  0  0  0  0999 V2000
   -3.9249    0.2420   -0.0153 C   0  0  0  0  0  0  0  0  0  0  0  0
   -2.6865   -0.5925    0.0717 C   0  0  0  0  0  0  0  0  0  0  0  0
   -4.8923   -0.3702   -0.1107 H   0  0  0  0  0  0  0  0  0  0  0  0
   -3.9170    0.9707   -0.9508 H   0  0  0  0  0  0  0  0  0  0  0  0
   -4.0201    0.8866    0.8264 H   0  0  0  0  0  0  0  0  0  0  0  0
   -1.4257    0.1904    0.0593 C   0  0  0  0  0  0  0  0  0  0  0  0
   -2.6714   -1.2248   -0.7415 H   0  0  0  0  0  0  0  0  0  0  0  0
   -2.7459   -1.2863    1.0154 H   0  0  0  0  0  0  0  0  0  0  0  0
   -0.1635   -0.7067   -0.0133 C   0  0  0  0  0  0  0  0  0  0  0  0
   -1.3687    0.9878    1.0412 H   0  0  0  0  0  0  0  0  0  0  0  0
   -1.4262    0.7258   -0.7965 H   0  0  0  0  0  0  0  0  0  0  0  0
   -0.0689   -1.3889    0.9104 H   0  0  0  0  0  0  0  0  0  0  0  0
    0.7564   -0.0763   -0.1596 H   0  0  0  0  0  0  0  0  0  0  0  0
   -0.2477   -1.2990   -0.8323 H   0  0  0  0  0  0  0  0  0  0  0  0
  1  2  1  0  0  0  0
  1  5  1  0  0  0  0
  2  8  1  0  0  0  0
  3  1  1  0  0  0  0
  4  1  1  0  0  0  0
  6  2  1  0  0  0  0
  6 10  1  0  0  0  0
  7  2  1  0  0  0  0
  9  6  1  0  0  0  0
  9 12  1  0  0  0  0
 11  6  1  0  0  0  0
 13  9  1  0  0  0  0
 14  9  1  0  0  0  0
M  END
$$$$
