14
butane_opt
C  -3.924057   0.264223   0.071449
C  -2.707551  -0.581847  -0.009811
H  -4.923869  -0.471666   0.024421
H  -3.953378   0.779496  -0.754388
H  -3.854217   0.909660   0.950044
C  -1.407212   0.199973  -0.044146
H  -2.803764  -1.289885  -0.890142
H  -2.649968  -1.279295   0.916377
C  -0.160791  -0.713376   0.087905
H  -1.517381   0.761480   0.690637
H  -1.374694   0.920219  -1.049029
H  -0.207480  -1.218116   0.921535
H   0.737741  -0.161684   0.209817
H  -0.071064  -1.460212  -0.856033
