14
butane_opt
C  -3.914845   0.241807   0.033579
C  -2.710363  -0.573618   0.019168
H  -4.854197  -0.375230   0.110407
H  -3.967522   0.848014  -0.804148
H  -3.885969   0.888940   0.882029
C  -1.403265   0.197333  -0.017787
H  -2.791589  -1.176060  -0.808289
H  -2.723835  -1.267894   0.930039
C  -0.160544  -0.714744   0.049810
H  -1.459494   0.824039   0.805792
H  -1.447082   0.822353  -0.919504
H  -0.292892  -1.227243   0.904733
H   0.712282  -0.156188   0.187090
H  -0.032173  -1.476309  -0.880241
