14
butane_opt
C  -3.973650   0.248996   0.056616
C  -2.709764  -0.595796   0.012005
H  -4.906584  -0.364320   0.008517
H  -3.941440   0.790028  -0.797156
H  -3.903860   0.969597   0.973698
C  -1.399351   0.206067  -0.034623
H  -2.772094  -1.309179  -0.848041
H  -2.666422  -1.243018   0.901804
C  -0.140899  -0.700066   0.062801
H  -1.477946   0.785604   0.718462
H  -1.353231   0.963083  -1.042343
H  -0.113182  -1.287435   0.985595
H   0.795697  -0.152957   0.239242
H  -0.010896  -1.536226  -0.864833
