butane_opt
 OpenBabel08242015413D

 14 13  0  0  0  0  0  0  0  0999 V2000
   -3.9629    0.2832    0.0553 C   0  0  0  0  0  0  0  0  0  0  0  0
   -2.7090   -0.6205    0.0233 C   0  0  0  0  0  0  0  0  0  0  0  0
   -4.8329   -0.2424   -0.0724 H   0  0  0  0  0  0  0  0  0  0  0  0
   -3.9849    0.7687   -0.7839 H   0  0  0  0  0  0  0  0  0  0  0  0
   -3.9586    1.0744    1.0057 H   0  0  0  0  0  0  0  0  0  0  0  0
   -1.3896    0.1515   -0.0591 C   0  0  0  0  0  0  0  0  0  0  0  0
   -2.7901   -1.3659   -0.8529 H   0  0  0  0  0  0  0  0  0  0  0  0
   -2.6071   -1.3159    0.9341 H   0  0  0  0  0  0  0  0  0  0  0  0
   -0.1598   -0.6743    0.0691 C   0  0  0  0  0  0  0  0  0  0  0  0
   -1.3829    0.8516    0.7732 H   0  0  0  0  0  0  0  0  0  0  0  0
   -1.3391    0.7698   -0.9610 H   0  0  0  0  0  0  0  0  0  0  0  0
   -0.2600   -1.2887    0.9620 H   0  0  0  0  0  0  0  0  0  0  0  0
    0.8129   -0.0468    0.1471 H   0  0  0  0  0  0  0  0  0  0  0  0
   -0.0439   -1.3359   -0.7737 H   0  0  0  0  0  0  0  0  0  0  0  0
  1  5  1  0  0  0  0
  2  1  1  0  0  0  0
  2  8  1  0  0  0  0
  3  1  1  0  0  0  0
  4  1  1  0  0  0  0
  6  2  1  0  0  0  0
  6  9  1  0  0  0  0
  6 10  1  0  0  0  0
  7  2  1  0  0  0  0
  9 13  1  0  0  0  0
  9 12  1  0  0  0  0
 11  6  1  0  0  0  0
 14  9  1  0  0  0  0
M  END
$$$$
