butane_opt
 OpenBabel08242015413D

 14 13  0  0  0  0  0  0  0  0999 V2000
   -3.9665    0.2535   -0.0142 C   0  0  0  0  0  0  0  0  0  0  0  0
   -2.7224   -0.5935    0.1061 C   0  0  0  0  0  0  0  0  0  0  0  0
   -4.8553   -0.3659   -0.2040 H   0  0  0  0  0  0  0  0  0  0  0  0
   -3.8458    0.7296   -0.8791 H   0  0  0  0  0  0  0  0  0  0  0  0
   -4.0740    1.0022    0.8872 H   0  0  0  0  0  0  0  0  0  0  0  0
   -1.3868    0.2036    0.0355 C   0  0  0  0  0  0  0  0  0  0  0  0
   -2.6783   -1.2191   -0.7233 H   0  0  0  0  0  0  0  0  0  0  0  0
   -2.7789   -1.2234    1.0133 H   0  0  0  0  0  0  0  0  0  0  0  0
   -0.1424   -0.7087   -0.0160 C   0  0  0  0  0  0  0  0  0  0  0  0
   -1.3484    0.8272    0.8557 H   0  0  0  0  0  0  0  0  0  0  0  0
   -1.3831    0.8238   -0.8405 H   0  0  0  0  0  0  0  0  0  0  0  0
   -0.1486   -1.3229    0.8934 H   0  0  0  0  0  0  0  0  0  0  0  0
    0.7443   -0.1482    0.0091 H   0  0  0  0  0  0  0  0  0  0  0  0
   -0.0327   -1.4430   -0.9058 H   0  0  0  0  0  0  0  0  0  0  0  0
  1  2  1  0  0  0  0
  1  5  1  0  0  0  0
  2  8  1  0  0  0  0
  3  1  1  0  0  0  0
  4  1  1  0  0  0  0
  6  2  1  0  0  0  0
  6 10  1  0  0  0  0
  7  2  1  0  0  0  0
  9 13  1  0  0  0  0
  9  6  1  0  0  0  0
  9 12  1  0  0  0  0
 11  6  1  0  0  0  0
 14  9  1  0  0  0  0
M  END
$$$$
