14
butane_opt
C  -3.962880   0.283237   0.055293
C  -2.709045  -0.620529   0.023257
H  -4.832923  -0.242410  -0.072387
H  -3.984933   0.768689  -0.783935
H  -3.958611   1.074351   1.005735
C  -1.389606   0.151488  -0.059083
H  -2.790060  -1.365876  -0.852878
H  -2.607079  -1.315888   0.934054
C  -0.159797  -0.674268   0.069149
H  -1.382903   0.851614   0.773183
H  -1.339064   0.769822  -0.961050
H  -0.260016  -1.288674   0.961984
H   0.812920  -0.046793   0.147111
H  -0.043916  -1.335946  -0.773731
