butane_opt
 OpenBabel08242015413D

 14 13  0  0  0  0  0  0  0  0999 V2000
   -3.9637    0.2763   -0.0139 C   0  0  0  0  0  0  0  0  0  0  0  0
   -2.6898   -0.6410    0.0545 C   0  0  0  0  0  0  0  0  0  0  0  0
   -4.8852   -0.2846    0.3138 H   0  0  0  0  0  0  0  0  0  0  0  0
   -4.0411    1.0996   -1.0251 H   0  0  0  0  0  0  0  0  0  0  0  0
   -3.9433    0.7404    0.7028 H   0  0  0  0  0  0  0  0  0  0  0  0
   -1.4032    0.1911    0.0425 C   0  0  0  0  0  0  0  0  0  0  0  0
   -2.6727   -1.3483   -0.8450 H   0  0  0  0  0  0  0  0  0  0  0  0
   -2.7830   -1.3227    0.9684 H   0  0  0  0  0  0  0  0  0  0  0  0
   -0.1568   -0.6824    0.0054 C   0  0  0  0  0  0  0  0  0  0  0  0
   -1.3198    1.0051    0.9762 H   0  0  0  0  0  0  0  0  0  0  0  0
   -1.4305    0.6750   -0.7230 H   0  0  0  0  0  0  0  0  0  0  0  0
   -0.0774   -1.2835    0.8313 H   0  0  0  0  0  0  0  0  0  0  0  0
    0.7468   -0.0847    0.0361 H   0  0  0  0  0  0  0  0  0  0  0  0
   -0.0679   -1.3808   -0.8675 H   0  0  0  0  0  0  0  0  0  0  0  0
  1  2  1  0  0  0  0
  1  3  1  0  0  0  0
  1  5  1  0  0  0  0
  2  8  1  0  0  0  0
  4  1  1  0  0  0  0
  6  2  1  0  0  0  0
  6 10  1  0  0  0  0
  7  2  1  0  0  0  0
  9 13  1  0  0  0  0
  9  6  1  0  0  0  0
  9 12  1  0  0  0  0
 11  6  1  0  0  0  0
 14  9  1  0  0  0  0
M  END
$$$$
