14
butane_opt
C  -3.960037   0.254433   0.070380
C  -2.705328  -0.593825  -0.033593
H  -4.949295  -0.366971   0.000552
H  -4.031008   0.763909  -0.732221
H  -3.961192   1.038551   0.982015
C  -1.412035   0.185806  -0.031879
H  -2.708597  -1.329752  -0.902346
H  -2.688408  -1.266529   0.851515
C  -0.132802  -0.699212   0.083687
H  -1.414537   0.892306   0.850700
H  -1.279126   0.808977  -0.933423
H  -0.015860  -1.527911   1.074890
H   0.730876  -0.141942  -0.147280
H  -0.169899  -1.115272  -0.633959
