butane_opt
 OpenBabel08242015413D

 14 13  0  0  0  0  0  0  0  0999 V2000
   -3.9703    0.2827   -0.0196 C   0  0  0  0  0  0  0  0  0  0  0  0
   -2.6914   -0.6485    0.0715 C   0  0  0  0  0  0  0  0  0  0  0  0
   -4.7757   -0.2403    0.2253 H   0  0  0  0  0  0  0  0  0  0  0  0
   -4.0601    1.0524   -1.0397 H   0  0  0  0  0  0  0  0  0  0  0  0
   -3.9290    0.8053    0.7608 H   0  0  0  0  0  0  0  0  0  0  0  0
   -1.3782    0.1872    0.0491 C   0  0  0  0  0  0  0  0  0  0  0  0
   -2.7797   -1.3762   -0.8402 H   0  0  0  0  0  0  0  0  0  0  0  0
   -2.7354   -1.2700    1.0031 H   0  0  0  0  0  0  0  0  0  0  0  0
   -0.1622   -0.6838    0.0016 C   0  0  0  0  0  0  0  0  0  0  0  0
   -1.3159    0.8717    0.9034 H   0  0  0  0  0  0  0  0  0  0  0  0
   -1.4303    0.7824   -0.8227 H   0  0  0  0  0  0  0  0  0  0  0  0
   -0.2323   -1.1945    0.8007 H   0  0  0  0  0  0  0  0  0  0  0  0
    0.7487   -0.0674    0.1189 H   0  0  0  0  0  0  0  0  0  0  0  0
   -0.0983   -1.4646   -0.9277 H   0  0  0  0  0  0  0  0  0  0  0  0
  1  2  1  0  0  0  0
  1  3  1  0  0  0  0
  1  5  1  0  0  0  0
  2  8  1  0  0  0  0
  4  1  1  0  0  0  0
  6  2  1  0  0  0  0
  6 10  1  0  0  0  0
  7  2  1  0  0  0  0
  9  6  1  0  0  0  0
  9 13  1  0  0  0  0
  9 12  1  0  0  0  0
 11  6  1  0  0  0  0
 14  9  1  0  0  0  0
M  END
$$$$
