14
butane_opt
C  -3.953099   0.295034   0.065509
C  -2.705696  -0.658692  -0.000278
H  -4.844015  -0.252508  -0.025723
H  -3.943232   0.802827  -0.792511
H  -4.138491   1.010024   0.905697
C  -1.394132   0.179148  -0.015501
H  -2.694944  -1.451015  -0.931906
H  -2.630711  -1.228811   0.797300
C  -0.157648  -0.673757   0.065972
H  -1.390693   0.801362   0.815344
H  -1.329391   0.829076  -0.915291
H  -0.087080  -1.448549   1.082110
H   0.759304  -0.087006  -0.147979
H  -0.206834  -1.136871  -0.702000
