14
butane_opt
C  -3.923658   0.242767   0.054283
C  -2.692648  -0.595701   0.004791
H  -4.851277  -0.365978  -0.094182
H  -3.928450   0.751012  -0.783089
H  -4.019062   1.004213   0.958948
C  -1.419827   0.201014  -0.004269
H  -2.773178  -1.342056  -0.926304
H  -2.580259  -1.170971   0.818372
C  -0.178638  -0.702786   0.061692
H  -1.414127   0.867969   0.868288
H  -1.368562   0.910216  -1.000382
H  -0.021179  -1.535523   1.041355
H   0.704634  -0.162982  -0.155369
H  -0.183222  -1.175623  -0.657389
