butane_opt
 OpenBabel08242015413D

 14 13  0  0  0  0  0  0  0  0999 V2000
   -3.9222    0.2541   -0.0235 C   0  0  0  0  0  0  0  0  0  0  0  0
   -2.7002   -0.5830    0.0923 C   0  0  0  0  0  0  0  0  0  0  0  0
   -4.9402   -0.4383    0.0070 H   0  0  0  0  0  0  0  0  0  0  0  0
   -3.8775    0.8045   -0.8882 H   0  0  0  0  0  0  0  0  0  0  0  0
   -3.9507    0.9490    0.8460 H   0  0  0  0  0  0  0  0  0  0  0  0
   -1.4123    0.2039    0.0193 C   0  0  0  0  0  0  0  0  0  0  0  0
   -2.6689   -1.1502   -0.6563 H   0  0  0  0  0  0  0  0  0  0  0  0
   -2.7626   -1.3471    1.0374 H   0  0  0  0  0  0  0  0  0  0  0  0
   -0.1699   -0.7255   -0.0006 C   0  0  0  0  0  0  0  0  0  0  0  0
   -1.4189    0.8962    0.8843 H   0  0  0  0  0  0  0  0  0  0  0  0
   -1.3473    0.7723   -0.8293 H   0  0  0  0  0  0  0  0  0  0  0  0
   -0.1768   -1.1441    0.7439 H   0  0  0  0  0  0  0  0  0  0  0  0
    0.7346   -0.1151    0.1709 H   0  0  0  0  0  0  0  0  0  0  0  0
   -0.1398   -1.5085   -0.9352 H   0  0  0  0  0  0  0  0  0  0  0  0
  1  3  1  0  0  0  0
  1  2  1  0  0  0  0
  1  5  1  0  0  0  0
  2  8  1  0  0  0  0
  4  1  1  0  0  0  0
  6  2  1  0  0  0  0
  6 10  1  0  0  0  0
  7  2  1  0  0  0  0
  9  6  1  0  0  0  0
  9 13  1  0  0  0  0
  9 12  1  0  0  0  0
 11  6  1  0  0  0  0
 14  9  1  0  0  0  0
M  END
$$$$
