butane_opt
 OpenBabel08242015413D

 14 13  0  0  0  0  0  0  0  0999 V2000
   -3.9323    0.2807    0.0643 C   0  0  0  0  0  0  0  0  0  0  0  0
   -2.6903   -0.6265   -0.0215 C   0  0  0  0  0  0  0  0  0  0  0  0
   -4.7843   -0.2752    0.2658 H   0  0  0  0  0  0  0  0  0  0  0  0
   -4.1037    0.9268   -0.8216 H   0  0  0  0  0  0  0  0  0  0  0  0
   -3.8091    0.9077    0.9632 H   0  0  0  0  0  0  0  0  0  0  0  0
   -1.4035    0.1587   -0.0413 C   0  0  0  0  0  0  0  0  0  0  0  0
   -2.6762   -1.4655   -1.0003 H   0  0  0  0  0  0  0  0  0  0  0  0
   -2.6455   -1.2100    0.8026 H   0  0  0  0  0  0  0  0  0  0  0  0
   -0.1957   -0.6713    0.0840 C   0  0  0  0  0  0  0  0  0  0  0  0
   -1.4484    0.7829    0.7460 H   0  0  0  0  0  0  0  0  0  0  0  0
   -1.2900    0.8754   -0.9686 H   0  0  0  0  0  0  0  0  0  0  0  0
   -0.1944   -1.3374    0.9878 H   0  0  0  0  0  0  0  0  0  0  0  0
    0.7076   -0.0706    0.1594 H   0  0  0  0  0  0  0  0  0  0  0  0
   -0.1278   -1.2860   -0.7123 H   0  0  0  0  0  0  0  0  0  0  0  0
  1  3  1  0  0  0  0
  1  5  1  0  0  0  0
  2  1  1  0  0  0  0
  2  8  1  0  0  0  0
  4  1  1  0  0  0  0
  6  2  1  0  0  0  0
  6  9  1  0  0  0  0
  6 10  1  0  0  0  0
  7  2  1  0  0  0  0
  9 13  1  0  0  0  0
  9 12  1  0  0  0  0
 11  6  1  0  0  0  0
 14  9  1  0  0  0  0
M  END
$$$$
