14
butane_opt
C  -3.970270   0.282654  -0.019638
C  -2.691402  -0.648530   0.071545
H  -4.775694  -0.240270   0.225274
H  -4.060135   1.052375  -1.039658
H  -3.928981   0.805329   0.760771
C  -1.378223   0.187198   0.049073
H  -2.779732  -1.376225  -0.840242
H  -2.735428  -1.270033   1.003142
C  -0.162181  -0.683794   0.001563
H  -1.315910   0.871654   0.903357
H  -1.430264   0.782438  -0.822731
H  -0.232337  -1.194470   0.800653
H   0.748703  -0.067378   0.118938
H  -0.098304  -1.464588  -0.927662
