14
butane_opt
C  -3.956669   0.245895  -0.025354
C  -2.712597  -0.601540   0.099702
H  -4.931773  -0.366587  -0.168752
H  -3.778415   0.868731  -0.931146
H  -4.157461   0.986757   0.862840
C  -1.399302   0.209557   0.050888
H  -2.718310  -1.169850  -0.660951
H  -2.811293  -1.312517   1.064287
C  -0.134354  -0.726079  -0.022806
H  -1.348978   0.990091   0.926283
H  -1.446248   0.746330  -0.767086
H  -0.064518  -1.295352   0.815124
H   0.811265  -0.078870  -0.058153
H  -0.128686  -1.385269  -0.865952
