14
butane_opt
C  -3.932297   0.280732   0.064331
C  -2.690315  -0.626528  -0.021506
H  -4.784319  -0.275242   0.265773
H  -4.103715   0.926835  -0.821622
H  -3.809094   0.907691   0.963231
C  -1.403530   0.158668  -0.041261
H  -2.676212  -1.465546  -1.000313
H  -2.645545  -1.210000   0.802626
C  -0.195660  -0.671296   0.084028
H  -1.448405   0.782874   0.746039
H  -1.290041   0.875374  -0.968595
H  -0.194430  -1.337396   0.987761
H   0.707597  -0.070643   0.159419
H  -0.127828  -1.285973  -0.712254
