butane_opt
 OpenBabel08242015413D

 14 13  0  0  0  0  0  0  0  0999 V2000
   -3.9148    0.2603   -0.0212 C   0  0  0  0  0  0  0  0  0  0  0  0
   -2.7123   -0.6091    0.0753 C   0  0  0  0  0  0  0  0  0  0  0  0
   -4.8446   -0.3841    0.1823 H   0  0  0  0  0  0  0  0  0  0  0  0
   -3.9459    0.9010   -0.9340 H   0  0  0  0  0  0  0  0  0  0  0  0
   -3.8923    0.8857    0.8372 H   0  0  0  0  0  0  0  0  0  0  0  0
   -1.4109    0.2073    0.0187 C   0  0  0  0  0  0  0  0  0  0  0  0
   -2.7419   -1.2405   -0.7808 H   0  0  0  0  0  0  0  0  0  0  0  0
   -2.7615   -1.3413    1.0492 H   0  0  0  0  0  0  0  0  0  0  0  0
   -0.1605   -0.7044    0.0079 C   0  0  0  0  0  0  0  0  0  0  0  0
   -1.3895    0.8831    0.8746 H   0  0  0  0  0  0  0  0  0  0  0  0
   -1.4959    0.8622   -0.8644 H   0  0  0  0  0  0  0  0  0  0  0  0
   -0.2222   -1.1198    0.8303 H   0  0  0  0  0  0  0  0  0  0  0  0
    0.7270   -0.1667    0.2473 H   0  0  0  0  0  0  0  0  0  0  0  0
   -0.0685   -1.6110   -0.9877 H   0  0  0  0  0  0  0  0  0  0  0  0
  1  2  1  0  0  0  0
  1  3  1  0  0  0  0
  1  5  1  0  0  0  0
  2  8  1  0  0  0  0
  4  1  1  0  0  0  0
  6  2  1  0  0  0  0
  6 10  1  0  0  0  0
  7  2  1  0  0  0  0
  9  6  1  0  0  0  0
  9 13  1  0  0  0  0
  9 12  1  0  0  0  0
 11  6  1  0  0  0  0
 14  9  1  0  0  0  0
M  END
$$$$
