butane_opt
 OpenBabel08242015413D

 14 13  0  0  0  0  0  0  0  0999 V2000
   -3.9363    0.2601    0.0630 C   0  0  0  0  0  0  0  0  0  0  0  0
   -2.7086   -0.6077    0.0069 C   0  0  0  0  0  0  0  0  0  0  0  0
   -4.8660   -0.3684    0.1047 H   0  0  0  0  0  0  0  0  0  0  0  0
   -4.0003    0.7990   -0.7623 H   0  0  0  0  0  0  0  0  0  0  0  0
   -3.8779    0.9308    0.9132 H   0  0  0  0  0  0  0  0  0  0  0  0
   -1.4013    0.2152   -0.0722 C   0  0  0  0  0  0  0  0  0  0  0  0
   -2.7456   -1.2833   -0.8210 H   0  0  0  0  0  0  0  0  0  0  0  0
   -2.6406   -1.2505    0.8997 H   0  0  0  0  0  0  0  0  0  0  0  0
   -0.1703   -0.7079    0.0725 C   0  0  0  0  0  0  0  0  0  0  0  0
   -1.3414    0.8732    0.7609 H   0  0  0  0  0  0  0  0  0  0  0  0
   -1.3838    0.8262   -0.9752 H   0  0  0  0  0  0  0  0  0  0  0  0
   -0.3136   -1.2389    0.9608 H   0  0  0  0  0  0  0  0  0  0  0  0
    0.7356   -0.1813    0.3398 H   0  0  0  0  0  0  0  0  0  0  0  0
    0.0176   -1.5076   -0.8252 H   0  0  0  0  0  0  0  0  0  0  0  0
  1  3  1  0  0  0  0
  1  5  1  0  0  0  0
  2  1  1  0  0  0  0
  2  8  1  0  0  0  0
  4  1  1  0  0  0  0
  6  2  1  0  0  0  0
  6  9  1  0  0  0  0
  6 10  1  0  0  0  0
  7  2  1  0  0  0  0
  9 13  1  0  0  0  0
  9 12  1  0  0  0  0
 11  6  1  0  0  0  0
 14  9  1  0  0  0  0
M  END
$$$$
