butane_opt
 OpenBabel08242015413D

 14 13  0  0  0  0  0  0  0  0999 V2000
   -3.9294    0.2740   -0.0393 C   0  0  0  0  0  0  0  0  0  0  0  0
   -2.6860   -0.6319    0.0872 C   0  0  0  0  0  0  0  0  0  0  0  0
   -4.8506   -0.2856   -0.0269 H   0  0  0  0  0  0  0  0  0  0  0  0
   -3.9287    0.9957   -1.0111 H   0  0  0  0  0  0  0  0  0  0  0  0
   -4.0215    0.8771    0.7337 H   0  0  0  0  0  0  0  0  0  0  0  0
   -1.4074    0.1622    0.1042 C   0  0  0  0  0  0  0  0  0  0  0  0
   -2.6587   -1.3103   -0.7443 H   0  0  0  0  0  0  0  0  0  0  0  0
   -2.7886   -1.2504    0.9581 H   0  0  0  0  0  0  0  0  0  0  0  0
   -0.1804   -0.6761   -0.0383 C   0  0  0  0  0  0  0  0  0  0  0  0
   -1.2210    0.9041    1.0378 H   0  0  0  0  0  0  0  0  0  0  0  0
   -1.4852    0.8108   -0.7506 H   0  0  0  0  0  0  0  0  0  0  0  0
   -0.0168   -1.3766    0.9421 H   0  0  0  0  0  0  0  0  0  0  0  0
    0.7057   -0.1329   -0.1882 H   0  0  0  0  0  0  0  0  0  0  0  0
   -0.3229   -1.2453   -0.8632 H   0  0  0  0  0  0  0  0  0  0  0  0
  1  3  1  0  0  0  0
  1  2  1  0  0  0  0
  1  5  1  0  0  0  0
  2  6  1  0  0  0  0
  2  8  1  0  0  0  0
  4  1  1  0  0  0  0
  6 10  1  0  0  0  0
  7  2  1  0  0  0  0
  9  6  1  0  0  0  0
  9 12  1  0  0  0  0
 11  6  1  0  0  0  0
 13  9  1  0  0  0  0
 14  9  1  0  0  0  0
M  END
$$$$
