14
butane_opt
C  -3.940505   0.296563  -0.017401
C  -2.675382  -0.644839   0.097469
H  -4.859248  -0.285526   0.094350
H  -3.902510   0.972942  -1.011810
H  -4.019459   0.762185   0.707262
C  -1.407649   0.163419   0.017726
H  -2.662402  -1.255300  -0.701497
H  -2.725281  -1.361161   1.086936
C  -0.180972  -0.661741  -0.011434
H  -1.335660   0.936859   0.983980
H  -1.414293   0.694939  -0.785069
H  -0.241443  -1.071563   0.744973
H   0.719385  -0.113100   0.264088
H  -0.140057  -1.590631  -1.011781
