butane_opt
 OpenBabel08242015413D

 14 13  0  0  0  0  0  0  0  0999 V2000
   -3.9450    0.2531   -0.0495 C   0  0  0  0  0  0  0  0  0  0  0  0
   -2.7090   -0.5941    0.1128 C   0  0  0  0  0  0  0  0  0  0  0  0
   -4.8766   -0.4266   -0.1321 H   0  0  0  0  0  0  0  0  0  0  0  0
   -3.9968    0.8301   -0.9112 H   0  0  0  0  0  0  0  0  0  0  0  0
   -4.0048    0.9627    0.8188 H   0  0  0  0  0  0  0  0  0  0  0  0
   -1.4193    0.1998    0.0782 C   0  0  0  0  0  0  0  0  0  0  0  0
   -2.7416   -1.2722   -0.7386 H   0  0  0  0  0  0  0  0  0  0  0  0
   -2.8331   -1.2569    1.0486 H   0  0  0  0  0  0  0  0  0  0  0  0
   -0.1217   -0.6998   -0.0256 C   0  0  0  0  0  0  0  0  0  0  0  0
   -1.3746    0.8175    0.9287 H   0  0  0  0  0  0  0  0  0  0  0  0
   -1.4847    0.8470   -0.8077 H   0  0  0  0  0  0  0  0  0  0  0  0
    0.0243   -1.3247    0.8653 H   0  0  0  0  0  0  0  0  0  0  0  0
    0.7723   -0.1320   -0.0961 H   0  0  0  0  0  0  0  0  0  0  0  0
   -0.1655   -1.4266   -0.9308 H   0  0  0  0  0  0  0  0  0  0  0  0
  1  2  1  0  0  0  0
  1  5  1  0  0  0  0
  2  8  1  0  0  0  0
  3  1  1  0  0  0  0
  4  1  1  0  0  0  0
  6  2  1  0  0  0  0
  6 10  1  0  0  0  0
  7  2  1  0  0  0  0
  9  6  1  0  0  0  0
  9 12  1  0  0  0  0
 11  6  1  0  0  0  0
 13  9  1  0  0  0  0
 14  9  1  0  0  0  0
M  END
$$$$
