14
butane_opt
C  -3.914833   0.260313  -0.021172
C  -2.712317  -0.609083   0.075324
H  -4.844615  -0.384067   0.182318
H  -3.945918   0.901008  -0.933958
H  -3.892266   0.885738   0.837213
C  -1.410898   0.207348   0.018739
H  -2.741948  -1.240512  -0.780799
H  -2.761466  -1.341279   1.049232
C  -0.160503  -0.704393   0.007894
H  -1.389491   0.883147   0.874621
H  -1.495895   0.862155  -0.864406
H  -0.222218  -1.119827   0.830261
H   0.727035  -0.166734   0.247257
H  -0.068511  -1.611026  -0.987658
