butane_opt
 OpenBabel08242015413D

 14 13  0  0  0  0  0  0  0  0999 V2000
   -3.9246    0.2544    0.0789 C   0  0  0  0  0  0  0  0  0  0  0  0
   -2.7285   -0.6153   -0.0323 C   0  0  0  0  0  0  0  0  0  0  0  0
   -4.8285   -0.3538    0.1108 H   0  0  0  0  0  0  0  0  0  0  0  0
   -4.0243    0.9066   -0.8515 H   0  0  0  0  0  0  0  0  0  0  0  0
   -4.0301    0.9585    0.9489 H   0  0  0  0  0  0  0  0  0  0  0  0
   -1.4037    0.2027   -0.0287 C   0  0  0  0  0  0  0  0  0  0  0  0
   -2.7909   -1.3668   -0.9349 H   0  0  0  0  0  0  0  0  0  0  0  0
   -2.6805   -1.1436    0.7944 H   0  0  0  0  0  0  0  0  0  0  0  0
   -0.1448   -0.7068    0.0771 C   0  0  0  0  0  0  0  0  0  0  0  0
   -1.4567    0.8387    0.7739 H   0  0  0  0  0  0  0  0  0  0  0  0
   -1.3152    0.8682   -0.8954 H   0  0  0  0  0  0  0  0  0  0  0  0
   -0.0741   -1.4261    1.0854 H   0  0  0  0  0  0  0  0  0  0  0  0
    0.7382   -0.1657   -0.0520 H   0  0  0  0  0  0  0  0  0  0  0  0
   -0.1243   -1.2126   -0.6667 H   0  0  0  0  0  0  0  0  0  0  0  0
  1  3  1  0  0  0  0
  1  5  1  0  0  0  0
  2  6  1  0  0  0  0
  2  1  1  0  0  0  0
  2  8  1  0  0  0  0
  4  1  1  0  0  0  0
  6  9  1  0  0  0  0
  6 10  1  0  0  0  0
  7  2  1  0  0  0  0
  9 12  1  0  0  0  0
 11  6  1  0  0  0  0
 13  9  1  0  0  0  0
 14  9  1  0  0  0  0
M  END
$$$$
