14
butane_opt
C  -3.933502   0.248226   0.053037
C  -2.691768  -0.597562  -0.046109
H  -4.909955  -0.377884   0.347122
H  -4.106719   0.958382  -0.853169
H  -3.730947   0.839869   0.881912
C  -1.424162   0.196329  -0.023675
H  -2.712387  -1.275324  -0.838060
H  -2.664305  -1.171088   0.817076
C  -0.157645  -0.706334   0.089279
H  -1.385240   0.892945   0.854645
H  -1.387236   0.788778  -0.903219
H  -0.216107  -1.356841   1.002229
H   0.734003  -0.120933  -0.005029
H  -0.145875  -1.345053  -0.742872
