butane_opt
 OpenBabel08242015413D

 14 13  0  0  0  0  0  0  0  0999 V2000
   -3.9601    0.2561    0.0182 C   0  0  0  0  0  0  0  0  0  0  0  0
   -2.6913   -0.6000    0.0367 C   0  0  0  0  0  0  0  0  0  0  0  0
   -4.8343   -0.3593    0.0965 H   0  0  0  0  0  0  0  0  0  0  0  0
   -3.9513    1.0168   -1.0027 H   0  0  0  0  0  0  0  0  0  0  0  0
   -3.9120    0.8407    0.7917 H   0  0  0  0  0  0  0  0  0  0  0  0
   -1.4031    0.1764    0.0221 C   0  0  0  0  0  0  0  0  0  0  0  0
   -2.6816   -1.3288   -0.8900 H   0  0  0  0  0  0  0  0  0  0  0  0
   -2.6231   -1.2481    0.9467 H   0  0  0  0  0  0  0  0  0  0  0  0
   -0.1720   -0.6858    0.0290 C   0  0  0  0  0  0  0  0  0  0  0  0
   -1.3424    0.9302    0.9462 H   0  0  0  0  0  0  0  0  0  0  0  0
   -1.4256    0.7381   -0.7789 H   0  0  0  0  0  0  0  0  0  0  0  0
   -0.0729   -1.3841    0.9555 H   0  0  0  0  0  0  0  0  0  0  0  0
    0.7431   -0.0781   -0.0632 H   0  0  0  0  0  0  0  0  0  0  0  0
   -0.2063   -1.3511   -0.8420 H   0  0  0  0  0  0  0  0  0  0  0  0
  1  2  1  0  0  0  0
  1  3  1  0  0  0  0
  1  5  1  0  0  0  0
  2  8  1  0  0  0  0
  4  1  1  0  0  0  0
  6  9  1  0  0  0  0
  6  2  1  0  0  0  0
  6 10  1  0  0  0  0
  7  2  1  0  0  0  0
  9 12  1  0  0  0  0
 11  6  1  0  0  0  0
 13  9  1  0  0  0  0
 14  9  1  0  0  0  0
M  END
$$$$
