14
butane_opt
C  -3.948367   0.293183   0.037920
C  -2.710899  -0.632300   0.042121
H  -4.913766  -0.341891  -0.219285
H  -3.918406   0.660497  -0.664736
H  -4.045621   1.146633   1.031827
C  -1.382445   0.167421  -0.030738
H  -2.672659  -1.365435  -0.881275
H  -2.690629  -1.236421   0.900236
C  -0.164509  -0.683327   0.060551
H  -1.324140   0.726338   0.716752
H  -1.436185   0.878561  -0.962812
H  -0.119223  -1.343932   0.997901
H   0.763357  -0.105112  -0.006033
H  -0.190539  -1.237998  -0.746707
