butane_opt
 OpenBabel08242015413D

 14 13  0  0  0  0  0  0  0  0999 V2000
   -3.9792    0.2692   -0.0305 C   0  0  0  0  0  0  0  0  0  0  0  0
   -2.6927   -0.6384    0.0742 C   0  0  0  0  0  0  0  0  0  0  0  0
   -4.7777   -0.2342    0.2859 H   0  0  0  0  0  0  0  0  0  0  0  0
   -4.0676    1.1151   -1.0818 H   0  0  0  0  0  0  0  0  0  0  0  0
   -3.9890    0.7543    0.7033 H   0  0  0  0  0  0  0  0  0  0  0  0
   -1.3903    0.1855    0.0650 C   0  0  0  0  0  0  0  0  0  0  0  0
   -2.6406   -1.3011   -0.7218 H   0  0  0  0  0  0  0  0  0  0  0  0
   -2.7383   -1.2811    0.9600 H   0  0  0  0  0  0  0  0  0  0  0  0
   -0.1586   -0.6744   -0.0109 C   0  0  0  0  0  0  0  0  0  0  0  0
   -1.3719    0.8329    0.9422 H   0  0  0  0  0  0  0  0  0  0  0  0
   -1.3046    0.7475   -0.7558 H   0  0  0  0  0  0  0  0  0  0  0  0
   -0.0899   -1.1572    0.7957 H   0  0  0  0  0  0  0  0  0  0  0  0
    0.7500   -0.0598    0.0975 H   0  0  0  0  0  0  0  0  0  0  0  0
   -0.1569   -1.5682   -0.9973 H   0  0  0  0  0  0  0  0  0  0  0  0
  1  2  1  0  0  0  0
  1  3  1  0  0  0  0
  1  5  1  0  0  0  0
  2  8  1  0  0  0  0
  4  1  1  0  0  0  0
  6  2  1  0  0  0  0
  6 10  1  0  0  0  0
  7  2  1  0  0  0  0
  9  6  1  0  0  0  0
  9 13  1  0  0  0  0
  9 12  1  0  0  0  0
 11  6  1  0  0  0  0
 14  9  1  0  0  0  0
M  END
$$$$
