14
butane_opt
C  -3.960432   0.257286  -0.004074
C  -2.701409  -0.623208   0.054911
H  -4.839969  -0.332773   0.139496
H  -4.039563   1.056612  -1.036374
H  -3.959073   0.714865   0.709293
C  -1.413472   0.206043   0.041473
H  -2.753460  -1.273972  -0.765071
H  -2.673191  -1.209355   0.917672
C  -0.150911  -0.698660   0.006971
H  -1.293390   0.961900   1.027827
H  -1.399837   0.733441  -0.777036
H   0.030057  -1.268486   0.851970
H   0.712921  -0.142027  -0.017592
H  -0.097982  -1.402322  -0.832727
