butane_opt
 OpenBabel08242015413D

 14 13  0  0  0  0  0  0  0  0999 V2000
   -3.9461    0.2524    0.0481 C   0  0  0  0  0  0  0  0  0  0  0  0
   -2.7068   -0.5971   -0.0017 C   0  0  0  0  0  0  0  0  0  0  0  0
   -4.9011   -0.3533    0.1767 H   0  0  0  0  0  0  0  0  0  0  0  0
   -4.0488    0.8948   -0.8601 H   0  0  0  0  0  0  0  0  0  0  0  0
   -3.9380    0.9123    0.9017 H   0  0  0  0  0  0  0  0  0  0  0  0
   -1.3990    0.1882   -0.0179 C   0  0  0  0  0  0  0  0  0  0  0  0
   -2.7435   -1.3323   -0.8837 H   0  0  0  0  0  0  0  0  0  0  0  0
   -2.7046   -1.2167    0.8682 H   0  0  0  0  0  0  0  0  0  0  0  0
   -0.1452   -0.7031    0.0553 C   0  0  0  0  0  0  0  0  0  0  0  0
   -1.4372    0.8929    0.8376 H   0  0  0  0  0  0  0  0  0  0  0  0
   -1.3796    0.8317   -0.9331 H   0  0  0  0  0  0  0  0  0  0  0  0
   -0.1719   -1.3376    0.9925 H   0  0  0  0  0  0  0  0  0  0  0  0
    0.7446   -0.1357    0.0827 H   0  0  0  0  0  0  0  0  0  0  0  0
   -0.0638   -1.3175   -0.7433 H   0  0  0  0  0  0  0  0  0  0  0  0
  1  3  1  0  0  0  0
  1  5  1  0  0  0  0
  2  1  1  0  0  0  0
  2  8  1  0  0  0  0
  4  1  1  0  0  0  0
  6  2  1  0  0  0  0
  6  9  1  0  0  0  0
  6 10  1  0  0  0  0
  7  2  1  0  0  0  0
  9 13  1  0  0  0  0
  9 12  1  0  0  0  0
 11  6  1  0  0  0  0
 14  9  1  0  0  0  0
M  END
$$$$
