butane_opt
 OpenBabel08242015413D

 14 13  0  0  0  0  0  0  0  0999 V2000
   -3.9484    0.2932    0.0379 C   0  0  0  0  0  0  0  0  0  0  0  0
   -2.7109   -0.6323    0.0421 C   0  0  0  0  0  0  0  0  0  0  0  0
   -4.9138   -0.3419   -0.2193 H   0  0  0  0  0  0  0  0  0  0  0  0
   -3.9184    0.6605   -0.6647 H   0  0  0  0  0  0  0  0  0  0  0  0
   -4.0456    1.1466    1.0318 H   0  0  0  0  0  0  0  0  0  0  0  0
   -1.3824    0.1674   -0.0307 C   0  0  0  0  0  0  0  0  0  0  0  0
   -2.6727   -1.3654   -0.8813 H   0  0  0  0  0  0  0  0  0  0  0  0
   -2.6906   -1.2364    0.9002 H   0  0  0  0  0  0  0  0  0  0  0  0
   -0.1645   -0.6833    0.0606 C   0  0  0  0  0  0  0  0  0  0  0  0
   -1.3241    0.7263    0.7168 H   0  0  0  0  0  0  0  0  0  0  0  0
   -1.4362    0.8786   -0.9628 H   0  0  0  0  0  0  0  0  0  0  0  0
   -0.1192   -1.3439    0.9979 H   0  0  0  0  0  0  0  0  0  0  0  0
    0.7634   -0.1051   -0.0060 H   0  0  0  0  0  0  0  0  0  0  0  0
   -0.1905   -1.2380   -0.7467 H   0  0  0  0  0  0  0  0  0  0  0  0
  1  2  1  0  0  0  0
  1  5  1  0  0  0  0
  2  8  1  0  0  0  0
  3  1  1  0  0  0  0
  4  1  1  0  0  0  0
  6  2  1  0  0  0  0
  6  9  1  0  0  0  0
  6 10  1  0  0  0  0
  7  2  1  0  0  0  0
  9 12  1  0  0  0  0
 11  6  1  0  0  0  0
 13  9  1  0  0  0  0
 14  9  1  0  0  0  0
M  END
$$$$
