14
butane_opt
C  -3.932223   0.248303  -0.017380
C  -2.727244  -0.594959   0.083842
H  -4.881751  -0.355155   0.120000
H  -3.940328   0.996294  -1.002137
H  -4.038963   0.816875   0.741992
C  -1.413627   0.195794   0.027797
H  -2.764893  -1.260378  -0.740375
H  -2.746652  -1.257442   1.047966
C  -0.133717  -0.712562   0.004125
H  -1.307728   0.921651   0.956913
H  -1.444468   0.801506  -0.851332
H  -0.078262  -1.071415   0.772526
H   0.756653  -0.168887   0.161386
H  -0.083133  -1.546840  -0.974737
