14
butane_opt
C  -3.941337   0.282081   0.043978
C  -2.688604  -0.633512   0.020305
H  -4.809281  -0.306694  -0.101044
H  -3.923178   0.659040  -0.700711
H  -4.002493   1.134173   1.027949
C  -1.413154   0.173653  -0.032787
H  -2.646254  -1.402975  -0.831601
H  -2.660062  -1.266570   0.903128
C  -0.170832  -0.676989   0.073714
H  -1.352564   0.736997   0.734743
H  -1.410781   0.956118  -1.033206
H  -0.187294  -1.313130   0.994478
H   0.740822  -0.101030   0.040504
H  -0.211159  -1.308735  -0.819251
