butane_opt
 OpenBabel08242015413D

 14 13  0  0  0  0  0  0  0  0999 V2000
   -3.9499    0.2364    0.0563 C   0  0  0  0  0  0  0  0  0  0  0  0
   -2.7166   -0.5751   -0.0386 C   0  0  0  0  0  0  0  0  0  0  0  0
   -4.8972   -0.3997    0.2909 H   0  0  0  0  0  0  0  0  0  0  0  0
   -4.0861    0.9377   -0.8490 H   0  0  0  0  0  0  0  0  0  0  0  0
   -3.7872    0.8470    0.8537 H   0  0  0  0  0  0  0  0  0  0  0  0
   -1.3973    0.2025   -0.0133 C   0  0  0  0  0  0  0  0  0  0  0  0
   -2.7176   -1.2782   -0.8889 H   0  0  0  0  0  0  0  0  0  0  0  0
   -2.7130   -1.1959    0.8708 H   0  0  0  0  0  0  0  0  0  0  0  0
   -0.1589   -0.7274    0.0702 C   0  0  0  0  0  0  0  0  0  0  0  0
   -1.3536    0.8738    0.8778 H   0  0  0  0  0  0  0  0  0  0  0  0
   -1.3990    0.9085   -0.9630 H   0  0  0  0  0  0  0  0  0  0  0  0
   -0.0754   -1.3386    0.9843 H   0  0  0  0  0  0  0  0  0  0  0  0
    0.7371   -0.1355    0.1090 H   0  0  0  0  0  0  0  0  0  0  0  0
   -0.0503   -1.3375   -0.7353 H   0  0  0  0  0  0  0  0  0  0  0  0
  1  3  1  0  0  0  0
  1  5  1  0  0  0  0
  2  6  1  0  0  0  0
  2  1  1  0  0  0  0
  2  8  1  0  0  0  0
  4  1  1  0  0  0  0
  6  9  1  0  0  0  0
  6 10  1  0  0  0  0
  7  2  1  0  0  0  0
  9 13  1  0  0  0  0
  9 12  1  0  0  0  0
 11  6  1  0  0  0  0
 14  9  1  0  0  0  0
M  END
$$$$
