butane_opt
 OpenBabel08242015413D

 14 13  0  0  0  0  0  0  0  0999 V2000
   -3.9635    0.2543   -0.0385 C   0  0  0  0  0  0  0  0  0  0  0  0
   -2.7025   -0.6133    0.1129 C   0  0  0  0  0  0  0  0  0  0  0  0
   -4.9404   -0.3653   -0.1718 H   0  0  0  0  0  0  0  0  0  0  0  0
   -3.8479    0.7173   -0.8453 H   0  0  0  0  0  0  0  0  0  0  0  0
   -4.0197    1.0631    0.8809 H   0  0  0  0  0  0  0  0  0  0  0  0
   -1.3908    0.2217    0.0514 C   0  0  0  0  0  0  0  0  0  0  0  0
   -2.7676   -1.2266   -0.6949 H   0  0  0  0  0  0  0  0  0  0  0  0
   -2.7852   -1.2335    1.0011 H   0  0  0  0  0  0  0  0  0  0  0  0
   -0.1530   -0.7163   -0.0025 C   0  0  0  0  0  0  0  0  0  0  0  0
   -1.3288    0.8096    0.8835 H   0  0  0  0  0  0  0  0  0  0  0  0
   -1.4132    0.9242   -0.8925 H   0  0  0  0  0  0  0  0  0  0  0  0
   -0.0365   -1.3141    0.8201 H   0  0  0  0  0  0  0  0  0  0  0  0
    0.7412   -0.1248   -0.0710 H   0  0  0  0  0  0  0  0  0  0  0  0
   -0.1107   -1.4942   -0.9461 H   0  0  0  0  0  0  0  0  0  0  0  0
  1  2  1  0  0  0  0
  1  5  1  0  0  0  0
  2  8  1  0  0  0  0
  3  1  1  0  0  0  0
  4  1  1  0  0  0  0
  6  2  1  0  0  0  0
  6 10  1  0  0  0  0
  7  2  1  0  0  0  0
  9  6  1  0  0  0  0
  9 12  1  0  0  0  0
 11  6  1  0  0  0  0
 13  9  1  0  0  0  0
 14  9  1  0  0  0  0
M  END
$$$$
