butane_opt
 OpenBabel08242015413D

 14 13  0  0  0  0  0  0  0  0999 V2000
   -3.9107    0.2439    0.0533 C   0  0  0  0  0  0  0  0  0  0  0  0
   -2.6900   -0.6003    0.0167 C   0  0  0  0  0  0  0  0  0  0  0  0
   -4.8491   -0.3590   -0.1510 H   0  0  0  0  0  0  0  0  0  0  0  0
   -3.8767    0.6983   -0.7246 H   0  0  0  0  0  0  0  0  0  0  0  0
   -4.0235    1.0484    1.0438 H   0  0  0  0  0  0  0  0  0  0  0  0
   -1.4284    0.2036   -0.0320 C   0  0  0  0  0  0  0  0  0  0  0  0
   -2.7419   -1.2956   -0.8698 H   0  0  0  0  0  0  0  0  0  0  0  0
   -2.7599   -1.1965    0.8744 H   0  0  0  0  0  0  0  0  0  0  0  0
   -0.1647   -0.7137    0.0594 C   0  0  0  0  0  0  0  0  0  0  0  0
   -1.4133    0.9056    0.8099 H   0  0  0  0  0  0  0  0  0  0  0  0
   -1.4685    0.9387   -0.9540 H   0  0  0  0  0  0  0  0  0  0  0  0
   -0.2073   -1.4588    1.0747 H   0  0  0  0  0  0  0  0  0  0  0  0
    0.7242   -0.1085   -0.0766 H   0  0  0  0  0  0  0  0  0  0  0  0
   -0.0714   -1.2674   -0.7287 H   0  0  0  0  0  0  0  0  0  0  0  0
  1  5  1  0  0  0  0
  2  1  1  0  0  0  0
  2  8  1  0  0  0  0
  3  1  1  0  0  0  0
  4  1  1  0  0  0  0
  6  2  1  0  0  0  0
  6  9  1  0  0  0  0
  6 10  1  0  0  0  0
  7  2  1  0  0  0  0
  9 12  1  0  0  0  0
 11  6  1  0  0  0  0
 13  9  1  0  0  0  0
 14  9  1  0  0  0  0
M  END
$$$$
