butane_opt
 OpenBabel08242015413D

 14 13  0  0  0  0  0  0  0  0999 V2000
   -3.9656    0.2641    0.0276 C   0  0  0  0  0  0  0  0  0  0  0  0
   -2.7016   -0.6211    0.0439 C   0  0  0  0  0  0  0  0  0  0  0  0
   -4.8317   -0.2867   -0.1015 H   0  0  0  0  0  0  0  0  0  0  0  0
   -3.9391    0.8268   -0.8285 H   0  0  0  0  0  0  0  0  0  0  0  0
   -4.0524    1.0466    0.9557 H   0  0  0  0  0  0  0  0  0  0  0  0
   -1.3952    0.1746   -0.0027 C   0  0  0  0  0  0  0  0  0  0  0  0
   -2.7497   -1.2965   -0.8161 H   0  0  0  0  0  0  0  0  0  0  0  0
   -2.6554   -1.2533    0.9069 H   0  0  0  0  0  0  0  0  0  0  0  0
   -0.1469   -0.6923    0.0355 C   0  0  0  0  0  0  0  0  0  0  0  0
   -1.3814    0.8062    0.8173 H   0  0  0  0  0  0  0  0  0  0  0  0
   -1.3882    0.8451   -0.9190 H   0  0  0  0  0  0  0  0  0  0  0  0
   -0.1593   -1.2920    0.9354 H   0  0  0  0  0  0  0  0  0  0  0  0
    0.7718   -0.0550    0.0199 H   0  0  0  0  0  0  0  0  0  0  0  0
   -0.1280   -1.3129   -0.7759 H   0  0  0  0  0  0  0  0  0  0  0  0
  1  2  1  0  0  0  0
  1  5  1  0  0  0  0
  2  8  1  0  0  0  0
  3  1  1  0  0  0  0
  4  1  1  0  0  0  0
  6  9  1  0  0  0  0
  6  2  1  0  0  0  0
  6 10  1  0  0  0  0
  7  2  1  0  0  0  0
  9 12  1  0  0  0  0
 11  6  1  0  0  0  0
 13  9  1  0  0  0  0
 14  9  1  0  0  0  0
M  END
$$$$
