14
butane_opt
C  -3.934951   0.269985  -0.004869
C  -2.689741  -0.628819   0.082943
H  -4.842621  -0.287410  -0.040644
H  -3.931938   0.894397  -0.914844
H  -4.010591   0.919932   0.833469
C  -1.405376   0.187745   0.026774
H  -2.695260  -1.304312  -0.755268
H  -2.722450  -1.234728   0.972709
C  -0.180673  -0.693628  -0.000879
H  -1.369181   0.844182   0.883848
H  -1.393126   0.800594  -0.868390
H  -0.184351  -1.236916   0.870289
H   0.774180  -0.054273   0.088914
H  -0.126074  -1.432813  -0.889477
