14
butane_opt
C  -3.984531   0.276936   0.047750
C  -2.684436  -0.640872   0.021370
H  -4.791392  -0.239032  -0.089583
H  -4.000658   0.692598  -0.696069
H  -4.043221   1.126755   0.998110
C  -1.397682   0.170084  -0.044587
H  -2.717300  -1.359738  -0.852389
H  -2.624246  -1.227931   0.900331
C  -0.160866  -0.674557   0.067264
H  -1.301208   0.826867   0.755058
H  -1.330892   0.824776  -0.937295
H  -0.228537  -1.390884   1.025804
H   0.755625  -0.048145   0.004296
H  -0.021856  -1.254559  -0.746783
