butane_opt
 OpenBabel08242015413D

 14 13  0  0  0  0  0  0  0  0999 V2000
   -3.9845    0.2769    0.0478 C   0  0  0  0  0  0  0  0  0  0  0  0
   -2.6844   -0.6409    0.0214 C   0  0  0  0  0  0  0  0  0  0  0  0
   -4.7914   -0.2390   -0.0896 H   0  0  0  0  0  0  0  0  0  0  0  0
   -4.0007    0.6926   -0.6961 H   0  0  0  0  0  0  0  0  0  0  0  0
   -4.0432    1.1268    0.9981 H   0  0  0  0  0  0  0  0  0  0  0  0
   -1.3977    0.1701   -0.0446 C   0  0  0  0  0  0  0  0  0  0  0  0
   -2.7173   -1.3597   -0.8524 H   0  0  0  0  0  0  0  0  0  0  0  0
   -2.6242   -1.2279    0.9003 H   0  0  0  0  0  0  0  0  0  0  0  0
   -0.1609   -0.6746    0.0673 C   0  0  0  0  0  0  0  0  0  0  0  0
   -1.3012    0.8269    0.7551 H   0  0  0  0  0  0  0  0  0  0  0  0
   -1.3309    0.8248   -0.9373 H   0  0  0  0  0  0  0  0  0  0  0  0
   -0.2285   -1.3909    1.0258 H   0  0  0  0  0  0  0  0  0  0  0  0
    0.7556   -0.0481    0.0043 H   0  0  0  0  0  0  0  0  0  0  0  0
   -0.0219   -1.2546   -0.7468 H   0  0  0  0  0  0  0  0  0  0  0  0
  1  5  1  0  0  0  0
  2  1  1  0  0  0  0
  2  8  1  0  0  0  0
  3  1  1  0  0  0  0
  4  1  1  0  0  0  0
  6  2  1  0  0  0  0
  6  9  1  0  0  0  0
  6 10  1  0  0  0  0
  7  2  1  0  0  0  0
  9 12  1  0  0  0  0
 11  6  1  0  0  0  0
 13  9  1  0  0  0  0
 14  9  1  0  0  0  0
M  END
$$$$
