butane_opt
 OpenBabel08242015413D

 14 13  0  0  0  0  0  0  0  0999 V2000
   -3.9413    0.2821    0.0440 C   0  0  0  0  0  0  0  0  0  0  0  0
   -2.6886   -0.6335    0.0203 C   0  0  0  0  0  0  0  0  0  0  0  0
   -4.8093   -0.3067   -0.1010 H   0  0  0  0  0  0  0  0  0  0  0  0
   -3.9232    0.6590   -0.7007 H   0  0  0  0  0  0  0  0  0  0  0  0
   -4.0025    1.1342    1.0279 H   0  0  0  0  0  0  0  0  0  0  0  0
   -1.4132    0.1737   -0.0328 C   0  0  0  0  0  0  0  0  0  0  0  0
   -2.6463   -1.4030   -0.8316 H   0  0  0  0  0  0  0  0  0  0  0  0
   -2.6601   -1.2666    0.9031 H   0  0  0  0  0  0  0  0  0  0  0  0
   -0.1708   -0.6770    0.0737 C   0  0  0  0  0  0  0  0  0  0  0  0
   -1.3526    0.7370    0.7347 H   0  0  0  0  0  0  0  0  0  0  0  0
   -1.4108    0.9561   -1.0332 H   0  0  0  0  0  0  0  0  0  0  0  0
   -0.1873   -1.3131    0.9945 H   0  0  0  0  0  0  0  0  0  0  0  0
    0.7408   -0.1010    0.0405 H   0  0  0  0  0  0  0  0  0  0  0  0
   -0.2112   -1.3087   -0.8193 H   0  0  0  0  0  0  0  0  0  0  0  0
  1  5  1  0  0  0  0
  2  1  1  0  0  0  0
  2  8  1  0  0  0  0
  3  1  1  0  0  0  0
  4  1  1  0  0  0  0
  6  2  1  0  0  0  0
  6  9  1  0  0  0  0
  6 10  1  0  0  0  0
  7  2  1  0  0  0  0
  9 12  1  0  0  0  0
 11  6  1  0  0  0  0
 13  9  1  0  0  0  0
 14  9  1  0  0  0  0
M  END
$$$$
