butane_opt
 OpenBabel08242015413D

 14 13  0  0  0  0  0  0  0  0999 V2000
   -3.9583    0.2786    0.0681 C   0  0  0  0  0  0  0  0  0  0  0  0
   -2.7204   -0.6274   -0.0267 C   0  0  0  0  0  0  0  0  0  0  0  0
   -4.7586   -0.2403    0.2637 H   0  0  0  0  0  0  0  0  0  0  0  0
   -4.0677    0.9491   -0.8687 H   0  0  0  0  0  0  0  0  0  0  0  0
   -3.9568    0.8588    0.8859 H   0  0  0  0  0  0  0  0  0  0  0  0
   -1.3940    0.1619   -0.0437 C   0  0  0  0  0  0  0  0  0  0  0  0
   -2.7559   -1.3513   -0.9426 H   0  0  0  0  0  0  0  0  0  0  0  0
   -2.6426   -1.2388    0.8172 H   0  0  0  0  0  0  0  0  0  0  0  0
   -0.1443   -0.6759    0.0856 C   0  0  0  0  0  0  0  0  0  0  0  0
   -1.4074    0.9436    0.8913 H   0  0  0  0  0  0  0  0  0  0  0  0
   -1.3173    0.7046   -0.9161 H   0  0  0  0  0  0  0  0  0  0  0  0
   -0.1911   -1.3813    1.0561 H   0  0  0  0  0  0  0  0  0  0  0  0
    0.7942   -0.0882    0.0216 H   0  0  0  0  0  0  0  0  0  0  0  0
   -0.1320   -1.2542   -0.7607 H   0  0  0  0  0  0  0  0  0  0  0  0
  1  3  1  0  0  0  0
  1  5  1  0  0  0  0
  2  1  1  0  0  0  0
  2  8  1  0  0  0  0
  4  1  1  0  0  0  0
  6  2  1  0  0  0  0
  6  9  1  0  0  0  0
  6 10  1  0  0  0  0
  7  2  1  0  0  0  0
  9 12  1  0  0  0  0
 11  6  1  0  0  0  0
 13  9  1  0  0  0  0
 14  9  1  0  0  0  0
M  END
$$$$
