14
butane_opt
C  -3.918595   0.258314  -0.022287
C  -2.701514  -0.604046   0.061312
H  -4.889544  -0.414347   0.054610
H  -3.937012   0.924403  -0.931953
H  -3.985979   0.899146   0.786589
C  -1.396948   0.205604   0.085022
H  -2.614032  -1.326041  -0.818967
H  -2.836500  -1.203268   0.946448
C  -0.179808  -0.704811  -0.004530
H  -1.377740   0.845122   0.893330
H  -1.439396   0.837224  -0.760241
H  -0.003969  -1.452025   0.917433
H   0.725154  -0.152536  -0.231897
H  -0.283988  -1.294949  -0.830314
