14
butane_opt
C  -3.970389   0.268729   0.055897
C  -2.705503  -0.633381   0.018216
H  -4.837184  -0.261378  -0.008500
H  -4.066446   0.828197  -0.785443
H  -3.942931   1.047567   1.053235
C  -1.389046   0.160268  -0.056825
H  -2.771036  -1.333272  -0.880304
H  -2.701245  -1.161087   0.873262
C  -0.138692  -0.679488   0.077041
H  -1.476828   0.755569   0.763685
H  -1.366874   0.964845  -1.044333
H  -0.198519  -1.257667   0.968738
H   0.784130  -0.029834   0.212023
H  -0.019113  -1.422227  -0.849057
