14
butane_opt
C  -3.957884   0.265057   0.038819
C  -2.716122  -0.608800   0.039803
H  -4.862840  -0.341747  -0.175127
H  -3.952185   0.678383  -0.776590
H  -4.009739   0.999702   0.950741
C  -1.402655   0.194935  -0.006485
H  -2.751145  -1.349481  -0.895399
H  -2.727907  -1.169447   0.904012
C  -0.128877  -0.705677   0.046559
H  -1.390975   0.824599   0.792590
H  -1.507512   0.914118  -0.973427
H  -0.066350  -1.412565   1.007389
H   0.812240  -0.072459  -0.057615
H  -0.108478  -1.287732  -0.733933
