butane_opt
 OpenBabel08242015413D

 14 13  0  0  0  0  0  0  0  0999 V2000
   -3.9579    0.2651    0.0388 C   0  0  0  0  0  0  0  0  0  0  0  0
   -2.7161   -0.6088    0.0398 C   0  0  0  0  0  0  0  0  0  0  0  0
   -4.8628   -0.3417   -0.1751 H   0  0  0  0  0  0  0  0  0  0  0  0
   -3.9522    0.6784   -0.7766 H   0  0  0  0  0  0  0  0  0  0  0  0
   -4.0097    0.9997    0.9507 H   0  0  0  0  0  0  0  0  0  0  0  0
   -1.4027    0.1949   -0.0065 C   0  0  0  0  0  0  0  0  0  0  0  0
   -2.7511   -1.3495   -0.8954 H   0  0  0  0  0  0  0  0  0  0  0  0
   -2.7279   -1.1694    0.9040 H   0  0  0  0  0  0  0  0  0  0  0  0
   -0.1289   -0.7057    0.0466 C   0  0  0  0  0  0  0  0  0  0  0  0
   -1.3910    0.8246    0.7926 H   0  0  0  0  0  0  0  0  0  0  0  0
   -1.5075    0.9141   -0.9734 H   0  0  0  0  0  0  0  0  0  0  0  0
   -0.0664   -1.4126    1.0074 H   0  0  0  0  0  0  0  0  0  0  0  0
    0.8122   -0.0725   -0.0576 H   0  0  0  0  0  0  0  0  0  0  0  0
   -0.1085   -1.2877   -0.7339 H   0  0  0  0  0  0  0  0  0  0  0  0
  1  2  1  0  0  0  0
  1  5  1  0  0  0  0
  2  8  1  0  0  0  0
  3  1  1  0  0  0  0
  4  1  1  0  0  0  0
  6  2  1  0  0  0  0
  6  9  1  0  0  0  0
  6 10  1  0  0  0  0
  7  2  1  0  0  0  0
  9 12  1  0  0  0  0
 11  6  1  0  0  0  0
 13  9  1  0  0  0  0
 14  9  1  0  0  0  0
M  END
$$$$
