14
butane_opt
C  -3.944792   0.277821  -0.043732
C  -2.684929  -0.615557   0.100607
H  -4.850014  -0.304347  -0.159622
H  -3.881113   0.852704  -0.901745
H  -4.035233   0.953097   0.833028
C  -1.395733   0.147807   0.072783
H  -2.551966  -1.209657  -0.646536
H  -2.765848  -1.361978   1.114296
C  -0.195644  -0.676638  -0.030389
H  -1.330088   0.901393   0.969527
H  -1.445149   0.774157  -0.760991
H  -0.115532  -1.269165   0.863709
H   0.772670  -0.015301  -0.105350
H  -0.183469  -1.394043  -0.964863
