butane_opt
 OpenBabel08242015413D

 14 13  0  0  0  0  0  0  0  0999 V2000
   -3.9186    0.2583   -0.0223 C   0  0  0  0  0  0  0  0  0  0  0  0
   -2.7015   -0.6040    0.0613 C   0  0  0  0  0  0  0  0  0  0  0  0
   -4.8895   -0.4143    0.0546 H   0  0  0  0  0  0  0  0  0  0  0  0
   -3.9370    0.9244   -0.9320 H   0  0  0  0  0  0  0  0  0  0  0  0
   -3.9860    0.8991    0.7866 H   0  0  0  0  0  0  0  0  0  0  0  0
   -1.3969    0.2056    0.0850 C   0  0  0  0  0  0  0  0  0  0  0  0
   -2.6140   -1.3260   -0.8190 H   0  0  0  0  0  0  0  0  0  0  0  0
   -2.8365   -1.2033    0.9464 H   0  0  0  0  0  0  0  0  0  0  0  0
   -0.1798   -0.7048   -0.0045 C   0  0  0  0  0  0  0  0  0  0  0  0
   -1.3777    0.8451    0.8933 H   0  0  0  0  0  0  0  0  0  0  0  0
   -1.4394    0.8372   -0.7602 H   0  0  0  0  0  0  0  0  0  0  0  0
   -0.0040   -1.4520    0.9174 H   0  0  0  0  0  0  0  0  0  0  0  0
    0.7252   -0.1525   -0.2319 H   0  0  0  0  0  0  0  0  0  0  0  0
   -0.2840   -1.2949   -0.8303 H   0  0  0  0  0  0  0  0  0  0  0  0
  1  3  1  0  0  0  0
  1  2  1  0  0  0  0
  1  5  1  0  0  0  0
  2  6  1  0  0  0  0
  2  8  1  0  0  0  0
  4  1  1  0  0  0  0
  6 10  1  0  0  0  0
  7  2  1  0  0  0  0
  9  6  1  0  0  0  0
  9 12  1  0  0  0  0
 11  6  1  0  0  0  0
 13  9  1  0  0  0  0
 14  9  1  0  0  0  0
M  END
$$$$
