butane_opt
 OpenBabel08242015413D

 14 13  0  0  0  0  0  0  0  0999 V2000
   -3.9197    0.2434   -0.0409 C   0  0  0  0  0  0  0  0  0  0  0  0
   -2.6949   -0.5971    0.0832 C   0  0  0  0  0  0  0  0  0  0  0  0
   -4.8865   -0.3739   -0.0719 H   0  0  0  0  0  0  0  0  0  0  0  0
   -3.8593    0.8566   -0.9584 H   0  0  0  0  0  0  0  0  0  0  0  0
   -3.9374    0.9162    0.7739 H   0  0  0  0  0  0  0  0  0  0  0  0
   -1.4207    0.2213    0.0873 C   0  0  0  0  0  0  0  0  0  0  0  0
   -2.6889   -1.1287   -0.6724 H   0  0  0  0  0  0  0  0  0  0  0  0
   -2.7312   -1.3284    1.0563 H   0  0  0  0  0  0  0  0  0  0  0  0
   -0.1754   -0.7164   -0.0237 C   0  0  0  0  0  0  0  0  0  0  0  0
   -1.3489    0.9278    1.0147 H   0  0  0  0  0  0  0  0  0  0  0  0
   -1.3787    0.7541   -0.7415 H   0  0  0  0  0  0  0  0  0  0  0  0
   -0.0783   -1.3569    0.8930 H   0  0  0  0  0  0  0  0  0  0  0  0
    0.7020   -0.1812   -0.2097 H   0  0  0  0  0  0  0  0  0  0  0  0
   -0.2691   -1.3869   -0.9299 H   0  0  0  0  0  0  0  0  0  0  0  0
  1  2  1  0  0  0  0
  1  5  1  0  0  0  0
  2  6  1  0  0  0  0
  2  8  1  0  0  0  0
  3  1  1  0  0  0  0
  4  1  1  0  0  0  0
  6 10  1  0  0  0  0
  7  2  1  0  0  0  0
  9  6  1  0  0  0  0
  9 12  1  0  0  0  0
 11  6  1  0  0  0  0
 13  9  1  0  0  0  0
 14  9  1  0  0  0  0
M  END
$$$$
