butane_opt
 OpenBabel08242015413D

 14 13  0  0  0  0  0  0  0  0999 V2000
   -3.9579    0.2816    0.0471 C   0  0  0  0  0  0  0  0  0  0  0  0
   -2.7086   -0.6321    0.0393 C   0  0  0  0  0  0  0  0  0  0  0  0
   -4.8322   -0.3203   -0.1957 H   0  0  0  0  0  0  0  0  0  0  0  0
   -3.8400    0.7249   -0.7595 H   0  0  0  0  0  0  0  0  0  0  0  0
   -4.1748    1.1137    0.9971 H   0  0  0  0  0  0  0  0  0  0  0  0
   -1.4044    0.1876   -0.0234 C   0  0  0  0  0  0  0  0  0  0  0  0
   -2.7337   -1.3366   -0.8164 H   0  0  0  0  0  0  0  0  0  0  0  0
   -2.7335   -1.2593    0.9182 H   0  0  0  0  0  0  0  0  0  0  0  0
   -0.1307   -0.6915    0.0518 C   0  0  0  0  0  0  0  0  0  0  0  0
   -1.3571    0.7665    0.7143 H   0  0  0  0  0  0  0  0  0  0  0  0
   -1.3547    0.8064   -0.9394 H   0  0  0  0  0  0  0  0  0  0  0  0
   -0.1890   -1.3453    0.9520 H   0  0  0  0  0  0  0  0  0  0  0  0
    0.8022   -0.0548    0.0078 H   0  0  0  0  0  0  0  0  0  0  0  0
   -0.1870   -1.3068   -0.7834 H   0  0  0  0  0  0  0  0  0  0  0  0
  1  5  1  0  0  0  0
  2  1  1  0  0  0  0
  2  8  1  0  0  0  0
  3  1  1  0  0  0  0
  4  1  1  0  0  0  0
  6  2  1  0  0  0  0
  6  9  1  0  0  0  0
  6 10  1  0  0  0  0
  7  2  1  0  0  0  0
  9 12  1  0  0  0  0
 11  6  1  0  0  0  0
 13  9  1  0  0  0  0
 14  9  1  0  0  0  0
M  END
$$$$
