butane_opt
 OpenBabel08242015413D

 14 13  0  0  0  0  0  0  0  0999 V2000
   -3.9566    0.2677    0.0555 C   0  0  0  0  0  0  0  0  0  0  0  0
   -2.6967   -0.6332   -0.0271 C   0  0  0  0  0  0  0  0  0  0  0  0
   -4.8429   -0.2622    0.0270 H   0  0  0  0  0  0  0  0  0  0  0  0
   -4.0136    0.7112   -0.7205 H   0  0  0  0  0  0  0  0  0  0  0  0
   -3.9823    1.1369    1.0271 H   0  0  0  0  0  0  0  0  0  0  0  0
   -1.4064    0.1703   -0.0299 C   0  0  0  0  0  0  0  0  0  0  0  0
   -2.7798   -1.2562   -0.8784 H   0  0  0  0  0  0  0  0  0  0  0  0
   -2.6966   -1.2320    0.8498 H   0  0  0  0  0  0  0  0  0  0  0  0
   -0.1500   -0.6790    0.0900 C   0  0  0  0  0  0  0  0  0  0  0  0
   -1.4216    0.8540    0.8019 H   0  0  0  0  0  0  0  0  0  0  0  0
   -1.3946    0.8101   -0.9459 H   0  0  0  0  0  0  0  0  0  0  0  0
   -0.0218   -1.4877    1.1253 H   0  0  0  0  0  0  0  0  0  0  0  0
    0.8044   -0.0490   -0.1880 H   0  0  0  0  0  0  0  0  0  0  0  0
   -0.1784   -1.2001   -0.6808 H   0  0  0  0  0  0  0  0  0  0  0  0
  1  5  1  0  0  0  0
  2  1  1  0  0  0  0
  2  8  1  0  0  0  0
  3  1  1  0  0  0  0
  4  1  1  0  0  0  0
  6  2  1  0  0  0  0
  6  9  1  0  0  0  0
  6 10  1  0  0  0  0
  7  2  1  0  0  0  0
  9 12  1  0  0  0  0
 11  6  1  0  0  0  0
 13  9  1  0  0  0  0
 14  9  1  0  0  0  0
M  END
$$$$
