butane_opt
 OpenBabel08242015413D

 14 13  0  0  0  0  0  0  0  0999 V2000
   -3.9443    0.2832   -0.0094 C   0  0  0  0  0  0  0  0  0  0  0  0
   -2.6656   -0.6283    0.0905 C   0  0  0  0  0  0  0  0  0  0  0  0
   -4.8777   -0.3651   -0.1686 H   0  0  0  0  0  0  0  0  0  0  0  0
   -3.9273    0.8019   -0.8706 H   0  0  0  0  0  0  0  0  0  0  0  0
   -4.0042    1.0218    0.9106 H   0  0  0  0  0  0  0  0  0  0  0  0
   -1.4062    0.1576    0.0327 C   0  0  0  0  0  0  0  0  0  0  0  0
   -2.6456   -1.2913   -0.7537 H   0  0  0  0  0  0  0  0  0  0  0  0
   -2.7313   -1.2940    0.9953 H   0  0  0  0  0  0  0  0  0  0  0  0
   -0.1753   -0.6768    0.0095 C   0  0  0  0  0  0  0  0  0  0  0  0
   -1.3236    0.7886    0.8087 H   0  0  0  0  0  0  0  0  0  0  0  0
   -1.4760    0.8996   -0.9280 H   0  0  0  0  0  0  0  0  0  0  0  0
   -0.1987   -1.1820    0.8019 H   0  0  0  0  0  0  0  0  0  0  0  0
    0.7037   -0.0820    0.0717 H   0  0  0  0  0  0  0  0  0  0  0  0
   -0.2360   -1.4087   -0.8977 H   0  0  0  0  0  0  0  0  0  0  0  0
  1  2  1  0  0  0  0
  1  5  1  0  0  0  0
  2  8  1  0  0  0  0
  3  1  1  0  0  0  0
  4  1  1  0  0  0  0
  6  2  1  0  0  0  0
  6 10  1  0  0  0  0
  7  2  1  0  0  0  0
  9  6  1  0  0  0  0
  9 13  1  0  0  0  0
  9 12  1  0  0  0  0
 11  6  1  0  0  0  0
 14  9  1  0  0  0  0
M  END
$$$$
