butane_opt
 OpenBabel08242015413D

 14 13  0  0  0  0  0  0  0  0999 V2000
   -3.9582    0.2937    0.0591 C   0  0  0  0  0  0  0  0  0  0  0  0
   -2.7093   -0.6520    0.0089 C   0  0  0  0  0  0  0  0  0  0  0  0
   -4.8429   -0.2446   -0.1519 H   0  0  0  0  0  0  0  0  0  0  0  0
   -3.9918    0.7309   -0.6805 H   0  0  0  0  0  0  0  0  0  0  0  0
   -3.9999    1.1317    1.0200 H   0  0  0  0  0  0  0  0  0  0  0  0
   -1.3790    0.1702   -0.0527 C   0  0  0  0  0  0  0  0  0  0  0  0
   -2.7723   -1.3452   -0.8381 H   0  0  0  0  0  0  0  0  0  0  0  0
   -2.6862   -1.2612    0.9061 H   0  0  0  0  0  0  0  0  0  0  0  0
   -0.1454   -0.6712    0.0850 C   0  0  0  0  0  0  0  0  0  0  0  0
   -1.4228    0.7526    0.7406 H   0  0  0  0  0  0  0  0  0  0  0  0
   -1.3633    0.7979   -0.9905 H   0  0  0  0  0  0  0  0  0  0  0  0
   -0.2001   -1.3328    0.9986 H   0  0  0  0  0  0  0  0  0  0  0  0
    0.7482   -0.0671   -0.0054 H   0  0  0  0  0  0  0  0  0  0  0  0
   -0.2011   -1.3155   -0.7506 H   0  0  0  0  0  0  0  0  0  0  0  0
  1  5  1  0  0  0  0
  2  1  1  0  0  0  0
  2  8  1  0  0  0  0
  3  1  1  0  0  0  0
  4  1  1  0  0  0  0
  6  2  1  0  0  0  0
  6  9  1  0  0  0  0
  6 10  1  0  0  0  0
  7  2  1  0  0  0  0
  9 12  1  0  0  0  0
 11  6  1  0  0  0  0
 13  9  1  0  0  0  0
 14  9  1  0  0  0  0
M  END
$$$$
