14
butane_opt
C  -3.933285   0.280900  -0.031934
C  -2.703714  -0.635880   0.068575
H  -4.852107  -0.295623  -0.045233
H  -3.909064   0.943757  -0.963273
H  -4.044613   0.940632   0.808011
C  -1.400758   0.166019   0.082442
H  -2.617554  -1.209986  -0.740136
H  -2.694435  -1.397252   1.047972
C  -0.176120  -0.678683  -0.019828
H  -1.288974   0.957931   1.012358
H  -1.415659   0.740855  -0.735661
H  -0.032402  -1.382313   0.965750
H   0.769399  -0.048465  -0.191077
H  -0.371947  -1.311927  -0.900633
