butane_opt
 OpenBabel08242015413D

 14 13  0  0  0  0  0  0  0  0999 V2000
   -3.9492    0.2405    0.0593 C   0  0  0  0  0  0  0  0  0  0  0  0
   -2.7210   -0.5868    0.0153 C   0  0  0  0  0  0  0  0  0  0  0  0
   -4.9335   -0.3978   -0.1893 H   0  0  0  0  0  0  0  0  0  0  0  0
   -3.8329    0.7037   -0.7175 H   0  0  0  0  0  0  0  0  0  0  0  0
   -4.0012    1.1331    1.0548 H   0  0  0  0  0  0  0  0  0  0  0  0
   -1.4135    0.2014   -0.0519 C   0  0  0  0  0  0  0  0  0  0  0  0
   -2.7532   -1.2298   -0.8265 H   0  0  0  0  0  0  0  0  0  0  0  0
   -2.6957   -1.2289    0.9161 H   0  0  0  0  0  0  0  0  0  0  0  0
   -0.1422   -0.7154    0.0625 C   0  0  0  0  0  0  0  0  0  0  0  0
   -1.3304    0.8429    0.7704 H   0  0  0  0  0  0  0  0  0  0  0  0
   -1.4148    0.8535   -0.9054 H   0  0  0  0  0  0  0  0  0  0  0  0
   -0.0779   -1.4369    1.0034 H   0  0  0  0  0  0  0  0  0  0  0  0
    0.7410   -0.1496    0.0710 H   0  0  0  0  0  0  0  0  0  0  0  0
   -0.0040   -1.2567   -0.7213 H   0  0  0  0  0  0  0  0  0  0  0  0
  1  5  1  0  0  0  0
  2  1  1  0  0  0  0
  2  8  1  0  0  0  0
  3  1  1  0  0  0  0
  4  1  1  0  0  0  0
  6  2  1  0  0  0  0
  6  9  1  0  0  0  0
  6 10  1  0  0  0  0
  7  2  1  0  0  0  0
  9 13  1  0  0  0  0
  9 12  1  0  0  0  0
 11  6  1  0  0  0  0
 14  9  1  0  0  0  0
M  END
$$$$
