14
butane_opt
C  -3.946935   0.248599   0.016749
C  -2.710922  -0.607999   0.047409
H  -4.877120  -0.353060   0.059055
H  -3.954972   0.943711  -0.913707
H  -3.981540   0.914123   0.856338
C  -1.408345   0.203683   0.010932
H  -2.731180  -1.280497  -0.793574
H  -2.703454  -1.279027   0.946807
C  -0.151559  -0.702951   0.035737
H  -1.370956   0.852747   0.830538
H  -1.400774   0.870424  -0.923432
H  -0.096789  -1.205012   0.832606
H   0.731649  -0.135826   0.116701
H  -0.023154  -1.501177  -0.916044
