butane_opt
 OpenBabel08242015413D

 14 13  0  0  0  0  0  0  0  0999 V2000
   -3.9664    0.2624    0.0500 C   0  0  0  0  0  0  0  0  0  0  0  0
   -2.7124   -0.6260   -0.0013 C   0  0  0  0  0  0  0  0  0  0  0  0
   -4.7503   -0.2472   -0.1277 H   0  0  0  0  0  0  0  0  0  0  0  0
   -3.9139    0.6685   -0.7165 H   0  0  0  0  0  0  0  0  0  0  0  0
   -4.0607    1.1190    1.0469 H   0  0  0  0  0  0  0  0  0  0  0  0
   -1.3992    0.1905   -0.0293 C   0  0  0  0  0  0  0  0  0  0  0  0
   -2.7411   -1.2156   -0.8102 H   0  0  0  0  0  0  0  0  0  0  0  0
   -2.6885   -1.3057    0.9467 H   0  0  0  0  0  0  0  0  0  0  0  0
   -0.1412   -0.6863    0.0722 C   0  0  0  0  0  0  0  0  0  0  0  0
   -1.4119    0.7753    0.7896 H   0  0  0  0  0  0  0  0  0  0  0  0
   -1.3707    0.8537   -0.9358 H   0  0  0  0  0  0  0  0  0  0  0  0
   -0.0660   -1.4135    0.9734 H   0  0  0  0  0  0  0  0  0  0  0  0
    0.7569   -0.0902   -0.0437 H   0  0  0  0  0  0  0  0  0  0  0  0
   -0.1588   -1.2898   -0.7516 H   0  0  0  0  0  0  0  0  0  0  0  0
  1  5  1  0  0  0  0
  2  1  1  0  0  0  0
  2  8  1  0  0  0  0
  3  1  1  0  0  0  0
  4  1  1  0  0  0  0
  6  2  1  0  0  0  0
  6  9  1  0  0  0  0
  6 10  1  0  0  0  0
  7  2  1  0  0  0  0
  9 12  1  0  0  0  0
 11  6  1  0  0  0  0
 13  9  1  0  0  0  0
 14  9  1  0  0  0  0
M  END
$$$$
