14
butane_opt
C  -3.946115   0.245344   0.075364
C  -2.742356  -0.590628  -0.035091
H  -4.852213  -0.324059   0.170281
H  -4.038425   0.924936  -0.839284
H  -3.863993   0.838367   0.858307
C  -1.403469   0.205421  -0.032756
H  -2.836662  -1.283797  -0.933734
H  -2.665048  -1.168959   0.829837
C  -0.128818  -0.717231   0.081817
H  -1.400998   0.883885   0.819610
H  -1.380999   0.784282  -0.870019
H  -0.090928  -1.438545   1.021017
H   0.784970  -0.128273   0.025103
H  -0.031289  -1.273135  -0.714326
