14
butane_opt
C  -3.911688   0.245468  -0.015719
C  -2.703667  -0.588352   0.085322
H  -4.805478  -0.288924   0.095513
H  -3.955242   0.931214  -0.927597
H  -3.929507   0.831729   0.779298
C  -1.409917   0.190449   0.034279
H  -2.756088  -1.238067  -0.765115
H  -2.746434  -1.304552   1.012617
C  -0.169384  -0.704131   0.001525
H  -1.390301   0.812542   0.832467
H  -1.456152   0.893852  -0.897261
H  -0.255135  -1.094156   0.768560
H   0.728098  -0.152330   0.292748
H  -0.113170  -1.595468  -1.041317
