14
butane_opt
C  -3.960632   0.229772   0.074775
C  -2.702064  -0.588904  -0.040086
H  -4.876842  -0.366458   0.238910
H  -4.067633   0.960417  -0.821116
H  -3.861585   0.873716   0.917321
C  -1.416000   0.226891  -0.056775
H  -2.802513  -1.319005  -0.946324
H  -2.663697  -1.239794   0.867266
C  -0.147505  -0.713400   0.095213
H  -1.366053   0.887868   0.837857
H  -1.341690   0.811779  -0.923028
H  -0.052344  -1.381222   1.004509
H   0.725346  -0.172909   0.130960
H   0.005727  -1.377678  -0.745540
