butane_opt
 OpenBabel08242015413D

 14 13  0  0  0  0  0  0  0  0999 V2000
   -3.9117    0.2455   -0.0157 C   0  0  0  0  0  0  0  0  0  0  0  0
   -2.7037   -0.5884    0.0853 C   0  0  0  0  0  0  0  0  0  0  0  0
   -4.8055   -0.2889    0.0955 H   0  0  0  0  0  0  0  0  0  0  0  0
   -3.9552    0.9312   -0.9276 H   0  0  0  0  0  0  0  0  0  0  0  0
   -3.9295    0.8317    0.7793 H   0  0  0  0  0  0  0  0  0  0  0  0
   -1.4099    0.1904    0.0343 C   0  0  0  0  0  0  0  0  0  0  0  0
   -2.7561   -1.2381   -0.7651 H   0  0  0  0  0  0  0  0  0  0  0  0
   -2.7464   -1.3046    1.0126 H   0  0  0  0  0  0  0  0  0  0  0  0
   -0.1694   -0.7041    0.0015 C   0  0  0  0  0  0  0  0  0  0  0  0
   -1.3903    0.8125    0.8325 H   0  0  0  0  0  0  0  0  0  0  0  0
   -1.4562    0.8939   -0.8973 H   0  0  0  0  0  0  0  0  0  0  0  0
   -0.2551   -1.0942    0.7686 H   0  0  0  0  0  0  0  0  0  0  0  0
    0.7281   -0.1523    0.2927 H   0  0  0  0  0  0  0  0  0  0  0  0
   -0.1132   -1.5955   -1.0413 H   0  0  0  0  0  0  0  0  0  0  0  0
  1  2  1  0  0  0  0
  1  3  1  0  0  0  0
  1  5  1  0  0  0  0
  2  8  1  0  0  0  0
  4  1  1  0  0  0  0
  6  2  1  0  0  0  0
  6 10  1  0  0  0  0
  7  2  1  0  0  0  0
  9  6  1  0  0  0  0
  9 13  1  0  0  0  0
  9 12  1  0  0  0  0
 11  6  1  0  0  0  0
 14  9  1  0  0  0  0
M  END
$$$$
