butane_opt
 OpenBabel08242015413D

 14 13  0  0  0  0  0  0  0  0999 V2000
   -3.9396    0.2940    0.0459 C   0  0  0  0  0  0  0  0  0  0  0  0
   -2.6851   -0.6432   -0.0066 C   0  0  0  0  0  0  0  0  0  0  0  0
   -4.9471   -0.3777    0.1319 H   0  0  0  0  0  0  0  0  0  0  0  0
   -3.9474    0.9922   -0.8509 H   0  0  0  0  0  0  0  0  0  0  0  0
   -3.9703    0.9439    0.8858 H   0  0  0  0  0  0  0  0  0  0  0  0
   -1.4005    0.1547   -0.0005 C   0  0  0  0  0  0  0  0  0  0  0  0
   -2.8117   -1.3427   -0.8809 H   0  0  0  0  0  0  0  0  0  0  0  0
   -2.5945   -1.1886    0.8133 H   0  0  0  0  0  0  0  0  0  0  0  0
   -0.1726   -0.6758    0.0570 C   0  0  0  0  0  0  0  0  0  0  0  0
   -1.3948    0.8017    0.8227 H   0  0  0  0  0  0  0  0  0  0  0  0
   -1.3304    0.7955   -0.8506 H   0  0  0  0  0  0  0  0  0  0  0  0
   -0.2063   -1.3672    0.9956 H   0  0  0  0  0  0  0  0  0  0  0  0
    0.7583   -0.0610   -0.0590 H   0  0  0  0  0  0  0  0  0  0  0  0
   -0.2019   -1.2299   -0.7232 H   0  0  0  0  0  0  0  0  0  0  0  0
  1  3  1  0  0  0  0
  1  5  1  0  0  0  0
  2  6  1  0  0  0  0
  2  1  1  0  0  0  0
  2  8  1  0  0  0  0
  4  1  1  0  0  0  0
  6  9  1  0  0  0  0
  6 10  1  0  0  0  0
  7  2  1  0  0  0  0
  9 12  1  0  0  0  0
 11  6  1  0  0  0  0
 13  9  1  0  0  0  0
 14  9  1  0  0  0  0
M  END
$$$$
