14
butane_opt
C  -3.968801   0.287835   0.067821
C  -2.701308  -0.659172  -0.008600
H  -4.869607  -0.324911   0.060153
H  -4.028633   0.856472  -0.759836
H  -3.937563   1.055230   0.997385
C  -1.392517   0.182353  -0.061286
H  -2.776566  -1.239035  -0.854632
H  -2.663428  -1.332076   0.923684
C  -0.148625  -0.672241   0.080112
H  -1.407242   0.849908   0.765299
H  -1.226615   0.856783  -1.017633
H  -0.236872  -1.294099   0.952224
H   0.734042  -0.136323   0.285162
H  -0.076593  -1.441248  -0.845689
