14
butane_opt
C  -3.913420   0.250138  -0.000237
C  -2.707757  -0.591566   0.058207
H  -4.875195  -0.445201   0.229613
H  -4.000464   1.037960  -1.039183
H  -3.899011   0.694759   0.710524
C  -1.428226   0.189691   0.040717
H  -2.769800  -1.231187  -0.824680
H  -2.696010  -1.129917   0.882878
C  -0.144028  -0.706228   0.012582
H  -1.514106   0.928338   0.926602
H  -1.449326   0.797947  -0.839538
H  -0.085943  -1.243782   0.848676
H   0.756339  -0.096821   0.076877
H  -0.161233  -1.499041  -0.899475
