butane_opt
 OpenBabel08242015413D

 14 13  0  0  0  0  0  0  0  0999 V2000
   -3.9518    0.2445   -0.0442 C   0  0  0  0  0  0  0  0  0  0  0  0
   -2.7095   -0.6187    0.0997 C   0  0  0  0  0  0  0  0  0  0  0  0
   -4.8637   -0.3137   -0.0833 H   0  0  0  0  0  0  0  0  0  0  0  0
   -3.9121    0.8779   -0.9644 H   0  0  0  0  0  0  0  0  0  0  0  0
   -3.9824    0.9842    0.9047 H   0  0  0  0  0  0  0  0  0  0  0  0
   -1.4211    0.2139    0.0827 C   0  0  0  0  0  0  0  0  0  0  0  0
   -2.6627   -1.2620   -0.7593 H   0  0  0  0  0  0  0  0  0  0  0  0
   -2.7738   -1.2157    0.9501 H   0  0  0  0  0  0  0  0  0  0  0  0
   -0.1413   -0.6995   -0.0170 C   0  0  0  0  0  0  0  0  0  0  0  0
   -1.2881    0.8408    0.9341 H   0  0  0  0  0  0  0  0  0  0  0  0
   -1.4481    0.8210   -0.8331 H   0  0  0  0  0  0  0  0  0  0  0  0
    0.0748   -1.3943    0.8791 H   0  0  0  0  0  0  0  0  0  0  0  0
    0.7352   -0.1744   -0.1581 H   0  0  0  0  0  0  0  0  0  0  0  0
   -0.2176   -1.3128   -0.8630 H   0  0  0  0  0  0  0  0  0  0  0  0
  1  2  1  0  0  0  0
  1  5  1  0  0  0  0
  2  8  1  0  0  0  0
  3  1  1  0  0  0  0
  4  1  1  0  0  0  0
  6  2  1  0  0  0  0
  6 10  1  0  0  0  0
  7  2  1  0  0  0  0
  9  6  1  0  0  0  0
  9 12  1  0  0  0  0
 11  6  1  0  0  0  0
 13  9  1  0  0  0  0
 14  9  1  0  0  0  0
M  END
$$$$
