14
butane_opt
C  -3.939198   0.259263  -0.020741
C  -2.698179  -0.605150   0.069962
H  -4.893450  -0.350811  -0.037960
H  -3.944894   0.899398  -0.914467
H  -3.969317   0.892119   0.823208
C  -1.414918   0.179907   0.063559
H  -2.692866  -1.237656  -0.745058
H  -2.698883  -1.271209   0.973881
C  -0.160791  -0.695420  -0.003513
H  -1.350623   0.899347   0.938091
H  -1.387419   0.814151  -0.835372
H  -0.044297  -1.318544   0.897395
H   0.737306  -0.124022  -0.101192
H  -0.216844  -1.347693  -0.877419
