14
butane_opt
C  -3.953349   0.246332   0.059898
C  -2.718588  -0.593813   0.025759
H  -4.869085  -0.364582  -0.251057
H  -3.846104   0.690580  -0.700244
H  -3.998714   1.131721   1.077619
C  -1.386476   0.211958  -0.042350
H  -2.755379  -1.332914  -0.879399
H  -2.732887  -1.228200   0.883920
C  -0.146622  -0.721822   0.061009
H  -1.371101   0.802832   0.752130
H  -1.482364   0.944524  -1.008126
H  -0.185391  -1.406408   1.013635
H   0.765078  -0.158719   0.037046
H  -0.077022  -1.266582  -0.701212
