butane_opt
 OpenBabel08242015413D

 14 13  0  0  0  0  0  0  0  0999 V2000
   -3.9285    0.2577   -0.0236 C   0  0  0  0  0  0  0  0  0  0  0  0
   -2.7188   -0.5835    0.0709 C   0  0  0  0  0  0  0  0  0  0  0  0
   -4.9049   -0.4401    0.2486 H   0  0  0  0  0  0  0  0  0  0  0  0
   -3.9733    1.0073   -0.9990 H   0  0  0  0  0  0  0  0  0  0  0  0
   -3.9276    0.7061    0.7413 H   0  0  0  0  0  0  0  0  0  0  0  0
   -1.3986    0.2081    0.0564 C   0  0  0  0  0  0  0  0  0  0  0  0
   -2.6629   -1.3454   -0.8557 H   0  0  0  0  0  0  0  0  0  0  0  0
   -2.7290   -1.2069    0.9822 H   0  0  0  0  0  0  0  0  0  0  0  0
   -0.1585   -0.7226   -0.0065 C   0  0  0  0  0  0  0  0  0  0  0  0
   -1.4046    0.9059    0.9468 H   0  0  0  0  0  0  0  0  0  0  0  0
   -1.3924    0.8225   -0.7965 H   0  0  0  0  0  0  0  0  0  0  0  0
   -0.1563   -1.2822    0.8218 H   0  0  0  0  0  0  0  0  0  0  0  0
    0.7502   -0.1028    0.0523 H   0  0  0  0  0  0  0  0  0  0  0  0
   -0.1464   -1.4578   -0.8899 H   0  0  0  0  0  0  0  0  0  0  0  0
  1  2  1  0  0  0  0
  1  3  1  0  0  0  0
  1  5  1  0  0  0  0
  2  8  1  0  0  0  0
  4  1  1  0  0  0  0
  6  2  1  0  0  0  0
  6 10  1  0  0  0  0
  7  2  1  0  0  0  0
  9 13  1  0  0  0  0
  9  6  1  0  0  0  0
  9 12  1  0  0  0  0
 11  6  1  0  0  0  0
 14  9  1  0  0  0  0
M  END
$$$$
