14
butane_opt
C  -3.923538   0.241323   0.053584
C  -2.713451  -0.574647  -0.016115
H  -4.813833  -0.358837   0.013491
H  -3.958141   0.790696  -0.804400
H  -3.906204   0.956665   0.892877
C  -1.407250   0.194861  -0.000750
H  -2.796877  -1.265586  -0.903293
H  -2.612548  -1.173370   0.836702
C  -0.170845  -0.719886   0.055208
H  -1.439593   0.870583   0.894422
H  -1.423173   0.767653  -0.853508
H  -0.088800  -1.566602   1.107436
H   0.783451  -0.070290  -0.184299
H  -0.185632  -1.113327  -0.641469
