14
butane_opt
C  -3.945219   0.243091   0.020721
C  -2.714703  -0.608652   0.015920
H  -4.864183  -0.325250   0.079869
H  -3.877260   0.866548  -0.847761
H  -3.944648   0.895193   0.888361
C  -1.430682   0.225996   0.023935
H  -2.760236  -1.266988  -0.865902
H  -2.751799  -1.214318   0.894917
C  -0.127841  -0.711707   0.030211
H  -1.422812   0.931731   0.891484
H  -1.396344   0.788798  -0.821032
H  -0.037076  -1.527085   1.034386
H   0.768683  -0.113934  -0.153741
H  -0.123097  -1.289425  -0.734725
