14
butane_opt
C  -3.966866   0.274373   0.084196
C  -2.711561  -0.633612  -0.033499
H  -4.806542  -0.235481   0.169122
H  -4.071909   0.896031  -0.814497
H  -3.911590   0.910201   0.931173
C  -1.379685   0.181086  -0.067971
H  -2.708078  -1.360724  -0.904795
H  -2.651798  -1.214105   0.811775
C  -0.158728  -0.686264   0.087769
H  -1.370954   0.883093   0.806505
H  -1.304647   0.769420  -0.893955
H  -0.183493  -1.365194   1.058379
H   0.687766  -0.090495   0.121808
H  -0.102849  -1.287898  -0.683433
