14
butane_opt
C  -3.942828   0.293568  -0.038985
C  -2.687072  -0.636315   0.122079
H  -4.873689  -0.360614  -0.241552
H  -3.783172   0.783406  -0.875122
H  -4.069569   1.030439   0.866968
C  -1.401642   0.160410   0.043925
H  -2.713703  -1.203001  -0.610637
H  -2.724641  -1.330473   1.024418
C  -0.170103  -0.676774  -0.020170
H  -1.275378   0.922990   0.947573
H  -1.457727   0.738534  -0.826342
H  -0.209551  -1.224791   0.842566
H   0.716514  -0.092557  -0.065491
H  -0.220078  -1.432454  -0.908172
