14
butane_opt
C  -3.906024   0.246889   0.068406
C  -2.715530  -0.592077  -0.036838
H  -4.810175  -0.332800   0.031953
H  -4.014084   0.786045  -0.768301
H  -3.857314   0.984484   0.972896
C  -1.421931   0.199320  -0.009572
H  -2.790055  -1.323455  -0.931068
H  -2.659474  -1.238609   0.786501
C  -0.175041  -0.704280   0.081764
H  -1.500347   0.853540   0.810808
H  -1.352322   0.888550  -0.959524
H  -0.037178  -1.555948   1.096429
H   0.761538  -0.116065  -0.186967
H  -0.151614  -1.200581  -0.640518
