14
butane_opt
C  -3.930731   0.270965  -0.018105
C  -2.694331  -0.622626   0.070491
H  -4.786050  -0.253775  -0.021977
H  -4.007888   0.974594  -0.953818
H  -3.991973   0.894816   0.805794
C  -1.408743   0.164668   0.050559
H  -2.651820  -1.324286  -0.789729
H  -2.780874  -1.247883   1.013465
C  -0.171208  -0.678690  -0.008748
H  -1.251948   0.974928   1.020165
H  -1.416244   0.669900  -0.744736
H  -0.164291  -1.435434   0.979915
H   0.790408  -0.062579  -0.157303
H  -0.300790  -1.263543  -0.838375
