14
butane_opt
C  -3.934100   0.265682  -0.009441
C  -2.721832  -0.627661   0.107597
H  -4.868777  -0.348524   0.011045
H  -3.961640   0.995993  -0.949325
H  -3.992937   0.803004   0.729938
C  -1.400024   0.215663   0.017287
H  -2.785520  -1.270850  -0.760437
H  -2.788832  -1.266078   0.992377
C  -0.139238  -0.709869   0.005257
H  -1.366395   0.872351   0.874415
H  -1.451831   0.830974  -0.891296
H  -0.175285  -1.057208   0.698806
H   0.725837  -0.162646   0.280100
H  -0.013470  -1.607231  -1.031051
