14
butane_opt
C  -3.945956   0.261263   0.050329
C  -2.717783  -0.598745   0.020586
H  -4.906786  -0.355386   0.088075
H  -3.997194   0.877011  -0.854371
H  -3.947159   0.876951   0.886936
C  -1.395360   0.194415  -0.027440
H  -2.736874  -1.348739  -0.873022
H  -2.724225  -1.198579   0.871791
C  -0.145175  -0.701547   0.055359
H  -1.402699   0.808265   0.791127
H  -1.377525   0.844751  -0.934797
H  -0.178029  -1.293816   0.926904
H   0.731938  -0.150336   0.180974
H  -0.027753  -1.401335  -0.830138
