butane_opt
 OpenBabel08242015413D

 14 13  0  0  0  0  0  0  0  0999 V2000
   -3.9305    0.2846    0.0142 C   0  0  0  0  0  0  0  0  0  0  0  0
   -2.6678   -0.6450    0.0465 C   0  0  0  0  0  0  0  0  0  0  0  0
   -4.8510   -0.2925    0.1361 H   0  0  0  0  0  0  0  0  0  0  0  0
   -3.9727    0.9890   -1.0095 H   0  0  0  0  0  0  0  0  0  0  0  0
   -4.0829    0.8926    0.8057 H   0  0  0  0  0  0  0  0  0  0  0  0
   -1.4101    0.1618    0.0118 C   0  0  0  0  0  0  0  0  0  0  0  0
   -2.7470   -1.2753   -0.7732 H   0  0  0  0  0  0  0  0  0  0  0  0
   -2.6851   -1.3366    1.0311 H   0  0  0  0  0  0  0  0  0  0  0  0
   -0.1798   -0.6779    0.0208 C   0  0  0  0  0  0  0  0  0  0  0  0
   -1.3609    0.9002    0.9084 H   0  0  0  0  0  0  0  0  0  0  0  0
   -1.4048    0.7646   -0.8602 H   0  0  0  0  0  0  0  0  0  0  0  0
   -0.2641   -1.1295    0.8216 H   0  0  0  0  0  0  0  0  0  0  0  0
    0.7586   -0.0120    0.1741 H   0  0  0  0  0  0  0  0  0  0  0  0
   -0.1501   -1.4554   -0.9312 H   0  0  0  0  0  0  0  0  0  0  0  0
  1  2  1  0  0  0  0
  1  3  1  0  0  0  0
  1  5  1  0  0  0  0
  2  8  1  0  0  0  0
  4  1  1  0  0  0  0
  6  9  1  0  0  0  0
  6  2  1  0  0  0  0
  6 10  1  0  0  0  0
  7  2  1  0  0  0  0
  9 13  1  0  0  0  0
  9 12  1  0  0  0  0
 11  6  1  0  0  0  0
 14  9  1  0  0  0  0
M  END
$$$$
