14
butane_opt
C  -3.973282   0.287783   0.072455
C  -2.701107  -0.661639  -0.008051
H  -4.807631  -0.247392  -0.105801
H  -3.937525   0.808508  -0.790397
H  -4.048805   1.118449   1.010614
C  -1.378356   0.175999  -0.022589
H  -2.780620  -1.429785  -0.918375
H  -2.652621  -1.163206   0.817486
C  -0.164577  -0.663920   0.068241
H  -1.449983   0.761686   0.761933
H  -1.293762   0.808176  -0.952997
H  -0.048238  -1.523787   1.129858
H   0.754316  -0.117155  -0.125296
H  -0.174400  -1.124283  -0.675883
