14
butane_opt
C  -3.966018   0.280184  -0.011818
C  -2.702738  -0.634509   0.089672
H  -4.814014  -0.223787  -0.245976
H  -3.954936   0.780004  -0.817990
H  -4.114377   1.079557   0.913264
C  -1.384146   0.160128   0.037875
H  -2.632992  -1.258188  -0.697417
H  -2.811498  -1.269321   1.025831
C  -0.157835  -0.685889   0.001986
H  -1.299278   0.749022   0.855907
H  -1.362978   0.815608  -0.909537
H  -0.126943  -1.232110   0.802721
H   0.792785  -0.008491  -0.036116
H  -0.179479  -1.333115  -0.853567
