14
butane_opt
C  -3.963341   0.248382  -0.001901
C  -2.700547  -0.608199   0.040809
H  -4.894177  -0.370090   0.185856
H  -3.999353   1.005222  -1.009328
H  -3.937720   0.761950   0.760480
C  -1.402368   0.201840   0.053884
H  -2.717349  -1.202198  -0.755598
H  -2.737318  -1.188919   0.955529
C  -0.136671  -0.698024   0.008709
H  -1.455812   0.922319   0.935869
H  -1.343800   0.812330  -0.839054
H  -0.052029  -1.314407   0.870657
H   0.737695  -0.207248   0.041890
H  -0.175979  -1.433581  -0.944441
