butane_opt
 OpenBabel08242015413D

 14 13  0  0  0  0  0  0  0  0999 V2000
   -3.9660    0.2802   -0.0118 C   0  0  0  0  0  0  0  0  0  0  0  0
   -2.7027   -0.6345    0.0897 C   0  0  0  0  0  0  0  0  0  0  0  0
   -4.8140   -0.2238   -0.2460 H   0  0  0  0  0  0  0  0  0  0  0  0
   -3.9549    0.7800   -0.8180 H   0  0  0  0  0  0  0  0  0  0  0  0
   -4.1144    1.0796    0.9133 H   0  0  0  0  0  0  0  0  0  0  0  0
   -1.3841    0.1601    0.0379 C   0  0  0  0  0  0  0  0  0  0  0  0
   -2.6330   -1.2582   -0.6974 H   0  0  0  0  0  0  0  0  0  0  0  0
   -2.8115   -1.2693    1.0258 H   0  0  0  0  0  0  0  0  0  0  0  0
   -0.1578   -0.6859    0.0020 C   0  0  0  0  0  0  0  0  0  0  0  0
   -1.2993    0.7490    0.8559 H   0  0  0  0  0  0  0  0  0  0  0  0
   -1.3630    0.8156   -0.9095 H   0  0  0  0  0  0  0  0  0  0  0  0
   -0.1269   -1.2321    0.8027 H   0  0  0  0  0  0  0  0  0  0  0  0
    0.7928   -0.0085   -0.0361 H   0  0  0  0  0  0  0  0  0  0  0  0
   -0.1795   -1.3331   -0.8536 H   0  0  0  0  0  0  0  0  0  0  0  0
  1  2  1  0  0  0  0
  1  5  1  0  0  0  0
  2  8  1  0  0  0  0
  3  1  1  0  0  0  0
  4  1  1  0  0  0  0
  6  2  1  0  0  0  0
  6 10  1  0  0  0  0
  7  2  1  0  0  0  0
  9  6  1  0  0  0  0
  9 12  1  0  0  0  0
 11  6  1  0  0  0  0
 13  9  1  0  0  0  0
 14  9  1  0  0  0  0
M  END
$$$$
