butane_opt
 OpenBabel08242015413D

 14 13  0  0  0  0  0  0  0  0999 V2000
   -3.9436    0.2735   -0.0150 C   0  0  0  0  0  0  0  0  0  0  0  0
   -2.6877   -0.6148    0.0722 C   0  0  0  0  0  0  0  0  0  0  0  0
   -4.8615   -0.3165   -0.0211 H   0  0  0  0  0  0  0  0  0  0  0  0
   -3.9321    0.8545   -0.9045 H   0  0  0  0  0  0  0  0  0  0  0  0
   -4.0552    0.9471    0.8222 H   0  0  0  0  0  0  0  0  0  0  0  0
   -1.4035    0.1593    0.0422 C   0  0  0  0  0  0  0  0  0  0  0  0
   -2.6736   -1.2459   -0.7356 H   0  0  0  0  0  0  0  0  0  0  0  0
   -2.6603   -1.3243    1.0390 H   0  0  0  0  0  0  0  0  0  0  0  0
   -0.1754   -0.6808    0.0027 C   0  0  0  0  0  0  0  0  0  0  0  0
   -1.3451    0.8783    0.9093 H   0  0  0  0  0  0  0  0  0  0  0  0
   -1.3886    0.7960   -0.8422 H   0  0  0  0  0  0  0  0  0  0  0  0
   -0.1532   -1.2407    0.8609 H   0  0  0  0  0  0  0  0  0  0  0  0
    0.7691   -0.0650    0.0025 H   0  0  0  0  0  0  0  0  0  0  0  0
   -0.1979   -1.4069   -0.9221 H   0  0  0  0  0  0  0  0  0  0  0  0
  1  2  1  0  0  0  0
  1  5  1  0  0  0  0
  2  8  1  0  0  0  0
  3  1  1  0  0  0  0
  4  1  1  0  0  0  0
  6  2  1  0  0  0  0
  6 10  1  0  0  0  0
  7  2  1  0  0  0  0
  9  6  1  0  0  0  0
  9 12  1  0  0  0  0
 11  6  1  0  0  0  0
 13  9  1  0  0  0  0
 14  9  1  0  0  0  0
M  END
$$$$
