14
butane_opt
C  -3.930472   0.284627   0.014175
C  -2.667803  -0.644987   0.046503
H  -4.851040  -0.292498   0.136122
H  -3.972680   0.989049  -1.009544
H  -4.082872   0.892578   0.805743
C  -1.410137   0.161836   0.011752
H  -2.746953  -1.275349  -0.773243
H  -2.685095  -1.336639   1.031149
C  -0.179849  -0.677875   0.020791
H  -1.360940   0.900162   0.908450
H  -1.404819   0.764612  -0.860247
H  -0.264094  -1.129518   0.821591
H   0.758552  -0.011988   0.174119
H  -0.150133  -1.455376  -0.931198
