butane_opt
 OpenBabel08242015413D

 14 13  0  0  0  0  0  0  0  0999 V2000
   -3.9210    0.2517   -0.0161 C   0  0  0  0  0  0  0  0  0  0  0  0
   -2.6887   -0.6196    0.1037 C   0  0  0  0  0  0  0  0  0  0  0  0
   -4.8384   -0.3728    0.0350 H   0  0  0  0  0  0  0  0  0  0  0  0
   -3.9476    0.9390   -0.9923 H   0  0  0  0  0  0  0  0  0  0  0  0
   -3.9975    0.9033    0.8183 H   0  0  0  0  0  0  0  0  0  0  0  0
   -1.4209    0.2127    0.0235 C   0  0  0  0  0  0  0  0  0  0  0  0
   -2.7186   -1.2248   -0.7498 H   0  0  0  0  0  0  0  0  0  0  0  0
   -2.7222   -1.2600    0.9902 H   0  0  0  0  0  0  0  0  0  0  0  0
   -0.1728   -0.7121    0.0046 C   0  0  0  0  0  0  0  0  0  0  0  0
   -1.4439    0.8506    0.8519 H   0  0  0  0  0  0  0  0  0  0  0  0
   -1.3800    0.8632   -0.8867 H   0  0  0  0  0  0  0  0  0  0  0  0
   -0.1357   -1.0976    0.7038 H   0  0  0  0  0  0  0  0  0  0  0  0
    0.7552   -0.0654    0.2398 H   0  0  0  0  0  0  0  0  0  0  0  0
   -0.1416   -1.6070   -0.9838 H   0  0  0  0  0  0  0  0  0  0  0  0
  1  3  1  0  0  0  0
  1  2  1  0  0  0  0
  1  5  1  0  0  0  0
  2  8  1  0  0  0  0
  4  1  1  0  0  0  0
  6  2  1  0  0  0  0
  6 10  1  0  0  0  0
  7  2  1  0  0  0  0
  9  6  1  0  0  0  0
  9 13  1  0  0  0  0
  9 12  1  0  0  0  0
 11  6  1  0  0  0  0
 14  9  1  0  0  0  0
M  END
$$$$
