14
butane_opt
C  -3.969758   0.272593  -0.032657
C  -2.697655  -0.628009   0.089500
H  -4.918047  -0.321872   0.113203
H  -3.958493   0.969880  -0.974303
H  -4.002188   0.894200   0.781562
C  -1.392067   0.173237   0.045013
H  -2.665043  -1.229105  -0.644859
H  -2.691701  -1.382550   1.066366
C  -0.144224  -0.678826  -0.019272
H  -1.323495   0.918432   0.948129
H  -1.463515   0.794329  -0.843650
H  -0.271683  -1.146622   0.750041
H   0.746127  -0.090724   0.251371
H  -0.032672  -1.553256  -1.020758
