butane_opt
 OpenBabel08242015413D

 14 13  0  0  0  0  0  0  0  0999 V2000
   -3.9720    0.2914   -0.0073 C   0  0  0  0  0  0  0  0  0  0  0  0
   -2.6863   -0.6539    0.0989 C   0  0  0  0  0  0  0  0  0  0  0  0
   -4.7775   -0.2274   -0.0059 H   0  0  0  0  0  0  0  0  0  0  0  0
   -3.9473    0.9425   -0.9538 H   0  0  0  0  0  0  0  0  0  0  0  0
   -4.0490    0.8661    0.7949 H   0  0  0  0  0  0  0  0  0  0  0  0
   -1.3891    0.1648    0.0099 C   0  0  0  0  0  0  0  0  0  0  0  0
   -2.7647   -1.3222   -0.7482 H   0  0  0  0  0  0  0  0  0  0  0  0
   -2.7245   -1.2875    1.0400 H   0  0  0  0  0  0  0  0  0  0  0  0
   -0.1631   -0.6654    0.0042 C   0  0  0  0  0  0  0  0  0  0  0  0
   -1.3733    0.9008    0.8877 H   0  0  0  0  0  0  0  0  0  0  0  0
   -1.3198    0.7663   -0.8765 H   0  0  0  0  0  0  0  0  0  0  0  0
   -0.1922   -1.1378    0.7707 H   0  0  0  0  0  0  0  0  0  0  0  0
    0.7217   -0.0747    0.2373 H   0  0  0  0  0  0  0  0  0  0  0  0
   -0.0923   -1.5348   -1.0051 H   0  0  0  0  0  0  0  0  0  0  0  0
  1  3  1  0  0  0  0
  1  2  1  0  0  0  0
  1  5  1  0  0  0  0
  2  8  1  0  0  0  0
  4  1  1  0  0  0  0
  6  2  1  0  0  0  0
  6 10  1  0  0  0  0
  7  2  1  0  0  0  0
  9  6  1  0  0  0  0
  9 13  1  0  0  0  0
  9 12  1  0  0  0  0
 11  6  1  0  0  0  0
 14  9  1  0  0  0  0
M  END
$$$$
