butane_opt
 OpenBabel08242015413D

 14 13  0  0  0  0  0  0  0  0999 V2000
   -3.9633    0.2484   -0.0019 C   0  0  0  0  0  0  0  0  0  0  0  0
   -2.7005   -0.6082    0.0408 C   0  0  0  0  0  0  0  0  0  0  0  0
   -4.8942   -0.3701    0.1859 H   0  0  0  0  0  0  0  0  0  0  0  0
   -3.9994    1.0052   -1.0093 H   0  0  0  0  0  0  0  0  0  0  0  0
   -3.9377    0.7620    0.7605 H   0  0  0  0  0  0  0  0  0  0  0  0
   -1.4024    0.2018    0.0539 C   0  0  0  0  0  0  0  0  0  0  0  0
   -2.7173   -1.2022   -0.7556 H   0  0  0  0  0  0  0  0  0  0  0  0
   -2.7373   -1.1889    0.9555 H   0  0  0  0  0  0  0  0  0  0  0  0
   -0.1367   -0.6980    0.0087 C   0  0  0  0  0  0  0  0  0  0  0  0
   -1.4558    0.9223    0.9359 H   0  0  0  0  0  0  0  0  0  0  0  0
   -1.3438    0.8123   -0.8391 H   0  0  0  0  0  0  0  0  0  0  0  0
   -0.0520   -1.3144    0.8707 H   0  0  0  0  0  0  0  0  0  0  0  0
    0.7377   -0.2072    0.0419 H   0  0  0  0  0  0  0  0  0  0  0  0
   -0.1760   -1.4336   -0.9444 H   0  0  0  0  0  0  0  0  0  0  0  0
  1  2  1  0  0  0  0
  1  3  1  0  0  0  0
  1  5  1  0  0  0  0
  2  6  1  0  0  0  0
  2  8  1  0  0  0  0
  4  1  1  0  0  0  0
  6 10  1  0  0  0  0
  7  2  1  0  0  0  0
  9 13  1  0  0  0  0
  9  6  1  0  0  0  0
  9 12  1  0  0  0  0
 11  6  1  0  0  0  0
 14  9  1  0  0  0  0
M  END
$$$$
