butane_opt
 OpenBabel08242015413D

 14 13  0  0  0  0  0  0  0  0999 V2000
   -3.9116    0.2819    0.0378 C   0  0  0  0  0  0  0  0  0  0  0  0
   -2.6898   -0.6392   -0.0022 C   0  0  0  0  0  0  0  0  0  0  0  0
   -4.8468   -0.2927    0.2663 H   0  0  0  0  0  0  0  0  0  0  0  0
   -4.1171    1.0373   -0.9172 H   0  0  0  0  0  0  0  0  0  0  0  0
   -3.9082    0.8553    0.8150 H   0  0  0  0  0  0  0  0  0  0  0  0
   -1.4008    0.1634   -0.0076 C   0  0  0  0  0  0  0  0  0  0  0  0
   -2.7615   -1.3149   -0.8548 H   0  0  0  0  0  0  0  0  0  0  0  0
   -2.6611   -1.2386    0.8795 H   0  0  0  0  0  0  0  0  0  0  0  0
   -0.1891   -0.6736    0.0415 C   0  0  0  0  0  0  0  0  0  0  0  0
   -1.3868    0.8423    0.9083 H   0  0  0  0  0  0  0  0  0  0  0  0
   -1.4683    0.7312   -0.8445 H   0  0  0  0  0  0  0  0  0  0  0  0
   -0.2696   -1.2963    0.9993 H   0  0  0  0  0  0  0  0  0  0  0  0
    0.7751   -0.0489    0.1508 H   0  0  0  0  0  0  0  0  0  0  0  0
   -0.0936   -1.3270   -0.8074 H   0  0  0  0  0  0  0  0  0  0  0  0
  1  3  1  0  0  0  0
  1  5  1  0  0  0  0
  2  1  1  0  0  0  0
  2  8  1  0  0  0  0
  4  1  1  0  0  0  0
  6  2  1  0  0  0  0
  6  9  1  0  0  0  0
  6 10  1  0  0  0  0
  7  2  1  0  0  0  0
  9 13  1  0  0  0  0
  9 12  1  0  0  0  0
 11  6  1  0  0  0  0
 14  9  1  0  0  0  0
M  END
$$$$
