butane_opt
 OpenBabel08242015413D

 14 13  0  0  0  0  0  0  0  0999 V2000
   -3.9607    0.2671   -0.0149 C   0  0  0  0  0  0  0  0  0  0  0  0
   -2.6981   -0.6286    0.0522 C   0  0  0  0  0  0  0  0  0  0  0  0
   -4.8580   -0.3050    0.2216 H   0  0  0  0  0  0  0  0  0  0  0  0
   -4.0705    1.0629   -1.0258 H   0  0  0  0  0  0  0  0  0  0  0  0
   -3.9307    0.7342    0.7515 H   0  0  0  0  0  0  0  0  0  0  0  0
   -1.4144    0.1887    0.0410 C   0  0  0  0  0  0  0  0  0  0  0  0
   -2.6236   -1.2224   -0.7124 H   0  0  0  0  0  0  0  0  0  0  0  0
   -2.7575   -1.2610    1.0176 H   0  0  0  0  0  0  0  0  0  0  0  0
   -0.1478   -0.6845    0.0094 C   0  0  0  0  0  0  0  0  0  0  0  0
   -1.3289    0.9349    0.9610 H   0  0  0  0  0  0  0  0  0  0  0  0
   -1.3428    0.6734   -0.7533 H   0  0  0  0  0  0  0  0  0  0  0  0
   -0.1371   -1.2044    0.8421 H   0  0  0  0  0  0  0  0  0  0  0  0
    0.7453   -0.0806    0.0229 H   0  0  0  0  0  0  0  0  0  0  0  0
   -0.0710   -1.5164   -0.9801 H   0  0  0  0  0  0  0  0  0  0  0  0
  1  2  1  0  0  0  0
  1  3  1  0  0  0  0
  1  5  1  0  0  0  0
  2  8  1  0  0  0  0
  4  1  1  0  0  0  0
  6  2  1  0  0  0  0
  6 10  1  0  0  0  0
  7  2  1  0  0  0  0
  9 13  1  0  0  0  0
  9  6  1  0  0  0  0
  9 12  1  0  0  0  0
 11  6  1  0  0  0  0
 14  9  1  0  0  0  0
M  END
$$$$
