14
butane_opt
C  -3.952347   0.281577   0.036530
C  -2.693452  -0.644165   0.010289
H  -4.906667  -0.282240   0.032325
H  -4.034155   0.791599  -0.797163
H  -4.021084   1.022350   0.946548
C  -1.405029   0.190338   0.008217
H  -2.725721  -1.472875  -0.979126
H  -2.649046  -1.183000   0.803268
C  -0.158573  -0.679615   0.056453
H  -1.319460   0.800795   0.798053
H  -1.346457   0.831506  -0.876517
H  -0.068362  -1.516678   1.103638
H   0.723354  -0.121668  -0.247797
H  -0.158763  -1.115790  -0.648056
