butane_opt
 OpenBabel08242015413D

 14 13  0  0  0  0  0  0  0  0999 V2000
   -3.9523    0.2816    0.0365 C   0  0  0  0  0  0  0  0  0  0  0  0
   -2.6935   -0.6442    0.0103 C   0  0  0  0  0  0  0  0  0  0  0  0
   -4.9067   -0.2822    0.0323 H   0  0  0  0  0  0  0  0  0  0  0  0
   -4.0342    0.7916   -0.7972 H   0  0  0  0  0  0  0  0  0  0  0  0
   -4.0211    1.0224    0.9465 H   0  0  0  0  0  0  0  0  0  0  0  0
   -1.4050    0.1903    0.0082 C   0  0  0  0  0  0  0  0  0  0  0  0
   -2.7257   -1.4729   -0.9791 H   0  0  0  0  0  0  0  0  0  0  0  0
   -2.6490   -1.1830    0.8033 H   0  0  0  0  0  0  0  0  0  0  0  0
   -0.1586   -0.6796    0.0565 C   0  0  0  0  0  0  0  0  0  0  0  0
   -1.3195    0.8008    0.7981 H   0  0  0  0  0  0  0  0  0  0  0  0
   -1.3465    0.8315   -0.8765 H   0  0  0  0  0  0  0  0  0  0  0  0
   -0.0684   -1.5167    1.1036 H   0  0  0  0  0  0  0  0  0  0  0  0
    0.7234   -0.1217   -0.2478 H   0  0  0  0  0  0  0  0  0  0  0  0
   -0.1588   -1.1158   -0.6481 H   0  0  0  0  0  0  0  0  0  0  0  0
  1  5  1  0  0  0  0
  2  1  1  0  0  0  0
  2  8  1  0  0  0  0
  3  1  1  0  0  0  0
  4  1  1  0  0  0  0
  6  2  1  0  0  0  0
  6  9  1  0  0  0  0
  6 10  1  0  0  0  0
  7  2  1  0  0  0  0
  9 12  1  0  0  0  0
 11  6  1  0  0  0  0
 13  9  1  0  0  0  0
 14  9  1  0  0  0  0
M  END
$$$$
