butane_opt
 OpenBabel08242015413D

 14 13  0  0  0  0  0  0  0  0999 V2000
   -3.9487    0.2786   -0.0100 C   0  0  0  0  0  0  0  0  0  0  0  0
   -2.6900   -0.6138    0.0563 C   0  0  0  0  0  0  0  0  0  0  0  0
   -4.8779   -0.3118    0.2039 H   0  0  0  0  0  0  0  0  0  0  0  0
   -3.8996    1.0387   -1.0016 H   0  0  0  0  0  0  0  0  0  0  0  0
   -3.9181    0.8138    0.7420 H   0  0  0  0  0  0  0  0  0  0  0  0
   -1.3972    0.1487    0.0548 C   0  0  0  0  0  0  0  0  0  0  0  0
   -2.7345   -1.2823   -0.7895 H   0  0  0  0  0  0  0  0  0  0  0  0
   -2.6981   -1.2340    0.9409 H   0  0  0  0  0  0  0  0  0  0  0  0
   -0.1786   -0.6784    0.0014 C   0  0  0  0  0  0  0  0  0  0  0  0
   -1.3576    0.8297    0.9312 H   0  0  0  0  0  0  0  0  0  0  0  0
   -1.3756    0.7253   -0.8132 H   0  0  0  0  0  0  0  0  0  0  0  0
   -0.1771   -1.2110    0.8328 H   0  0  0  0  0  0  0  0  0  0  0  0
    0.7367   -0.1164    0.0505 H   0  0  0  0  0  0  0  0  0  0  0  0
   -0.1582   -1.3358   -0.9032 H   0  0  0  0  0  0  0  0  0  0  0  0
  1  2  1  0  0  0  0
  1  3  1  0  0  0  0
  1  5  1  0  0  0  0
  2  8  1  0  0  0  0
  4  1  1  0  0  0  0
  6  2  1  0  0  0  0
  6 10  1  0  0  0  0
  7  2  1  0  0  0  0
  9 13  1  0  0  0  0
  9  6  1  0  0  0  0
  9 12  1  0  0  0  0
 11  6  1  0  0  0  0
 14  9  1  0  0  0  0
M  END
$$$$
