butane_opt
 OpenBabel08242015413D

 14 13  0  0  0  0  0  0  0  0999 V2000
   -3.9226    0.2417    0.0227 C   0  0  0  0  0  0  0  0  0  0  0  0
   -2.6971   -0.5828    0.0169 C   0  0  0  0  0  0  0  0  0  0  0  0
   -4.8404   -0.3998    0.1713 H   0  0  0  0  0  0  0  0  0  0  0  0
   -4.0344    0.9511   -0.9134 H   0  0  0  0  0  0  0  0  0  0  0  0
   -3.8570    0.8159    0.8762 H   0  0  0  0  0  0  0  0  0  0  0  0
   -1.4186    0.2092    0.0276 C   0  0  0  0  0  0  0  0  0  0  0  0
   -2.6580   -1.3773   -0.9063 H   0  0  0  0  0  0  0  0  0  0  0  0
   -2.7274   -1.2215    0.8727 H   0  0  0  0  0  0  0  0  0  0  0  0
   -0.1830   -0.7103    0.0351 C   0  0  0  0  0  0  0  0  0  0  0  0
   -1.4432    0.8322    0.8415 H   0  0  0  0  0  0  0  0  0  0  0  0
   -1.3871    0.9015   -0.8946 H   0  0  0  0  0  0  0  0  0  0  0  0
   -0.0378   -1.3686    0.9691 H   0  0  0  0  0  0  0  0  0  0  0  0
    0.7319   -0.1463    0.0137 H   0  0  0  0  0  0  0  0  0  0  0  0
   -0.1086   -1.3444   -0.8181 H   0  0  0  0  0  0  0  0  0  0  0  0
  1  3  1  0  0  0  0
  1  5  1  0  0  0  0
  2  1  1  0  0  0  0
  2  6  1  0  0  0  0
  2  8  1  0  0  0  0
  4  1  1  0  0  0  0
  6  9  1  0  0  0  0
  6 10  1  0  0  0  0
  7  2  1  0  0  0  0
  9 12  1  0  0  0  0
 11  6  1  0  0  0  0
 13  9  1  0  0  0  0
 14  9  1  0  0  0  0
M  END
$$$$
