butane_opt
 OpenBabel08242015413D

 14 13  0  0  0  0  0  0  0  0999 V2000
   -3.9507    0.2815   -0.0005 C   0  0  0  0  0  0  0  0  0  0  0  0
   -2.6812   -0.6221    0.0375 C   0  0  0  0  0  0  0  0  0  0  0  0
   -4.8365   -0.2785    0.3571 H   0  0  0  0  0  0  0  0  0  0  0  0
   -4.0663    1.0761   -0.9729 H   0  0  0  0  0  0  0  0  0  0  0  0
   -3.8911    0.7403    0.6919 H   0  0  0  0  0  0  0  0  0  0  0  0
   -1.3910    0.1450    0.0401 C   0  0  0  0  0  0  0  0  0  0  0  0
   -2.6273   -1.3600   -0.8826 H   0  0  0  0  0  0  0  0  0  0  0  0
   -2.7892   -1.2066    0.9145 H   0  0  0  0  0  0  0  0  0  0  0  0
   -0.1739   -0.6685    0.0291 C   0  0  0  0  0  0  0  0  0  0  0  0
   -1.3733    0.8561    0.9480 H   0  0  0  0  0  0  0  0  0  0  0  0
   -1.3674    0.8053   -0.8692 H   0  0  0  0  0  0  0  0  0  0  0  0
   -0.1826   -1.2327    0.8599 H   0  0  0  0  0  0  0  0  0  0  0  0
    0.7292   -0.0663    0.0452 H   0  0  0  0  0  0  0  0  0  0  0  0
   -0.2635   -1.4342   -0.9371 H   0  0  0  0  0  0  0  0  0  0  0  0
  1  2  1  0  0  0  0
  1  3  1  0  0  0  0
  1  5  1  0  0  0  0
  2  6  1  0  0  0  0
  2  8  1  0  0  0  0
  4  1  1  0  0  0  0
  6 10  1  0  0  0  0
  7  2  1  0  0  0  0
  9  6  1  0  0  0  0
  9 13  1  0  0  0  0
  9 12  1  0  0  0  0
 11  6  1  0  0  0  0
 14  9  1  0  0  0  0
M  END
$$$$
