14
butane_opt
C  -3.960729   0.267104  -0.014851
C  -2.698092  -0.628601   0.052240
H  -4.857973  -0.305044   0.221569
H  -4.070497   1.062941  -1.025781
H  -3.930748   0.734179   0.751490
C  -1.414385   0.188742   0.040988
H  -2.623567  -1.222425  -0.712377
H  -2.757488  -1.261014   1.017635
C  -0.147767  -0.684510   0.009418
H  -1.328851   0.934877   0.961026
H  -1.342824   0.673437  -0.753266
H  -0.137148  -1.204368   0.842106
H   0.745325  -0.080587   0.022895
H  -0.071036  -1.516449  -0.980137
