butane_opt
 OpenBabel08242015413D

 14 13  0  0  0  0  0  0  0  0999 V2000
   -3.9154    0.2494    0.0734 C   0  0  0  0  0  0  0  0  0  0  0  0
   -2.7042   -0.5981   -0.0094 C   0  0  0  0  0  0  0  0  0  0  0  0
   -4.7935   -0.3533    0.1762 H   0  0  0  0  0  0  0  0  0  0  0  0
   -4.0290    0.9662   -0.8658 H   0  0  0  0  0  0  0  0  0  0  0  0
   -3.8208    0.8168    0.8609 H   0  0  0  0  0  0  0  0  0  0  0  0
   -1.4173    0.2148   -0.0394 C   0  0  0  0  0  0  0  0  0  0  0  0
   -2.8132   -1.4327   -0.9622 H   0  0  0  0  0  0  0  0  0  0  0  0
   -2.6452   -1.1159    0.7926 H   0  0  0  0  0  0  0  0  0  0  0  0
   -0.1812   -0.7198    0.0793 C   0  0  0  0  0  0  0  0  0  0  0  0
   -1.4981    0.8777    0.7901 H   0  0  0  0  0  0  0  0  0  0  0  0
   -1.2993    0.8480   -0.9811 H   0  0  0  0  0  0  0  0  0  0  0  0
   -0.1981   -1.3638    1.0270 H   0  0  0  0  0  0  0  0  0  0  0  0
    0.7842   -0.0528    0.0882 H   0  0  0  0  0  0  0  0  0  0  0  0
   -0.0964   -1.4049   -0.7547 H   0  0  0  0  0  0  0  0  0  0  0  0
  1  3  1  0  0  0  0
  1  5  1  0  0  0  0
  2  1  1  0  0  0  0
  2  8  1  0  0  0  0
  4  1  1  0  0  0  0
  6  2  1  0  0  0  0
  6  9  1  0  0  0  0
  6 10  1  0  0  0  0
  7  2  1  0  0  0  0
  9 13  1  0  0  0  0
  9 12  1  0  0  0  0
 11  6  1  0  0  0  0
 14  9  1  0  0  0  0
M  END
$$$$
