14
butane_opt
C  -3.950974   0.283748   0.069372
C  -2.683449  -0.623953  -0.002244
H  -4.858742  -0.301966   0.165898
H  -4.014370   0.914784  -0.775696
H  -3.820697   0.981562   0.964637
C  -1.406402   0.143381  -0.066343
H  -2.720222  -1.416572  -0.940463
H  -2.621872  -1.165961   0.833075
C  -0.188775  -0.667549   0.089555
H  -1.392598   0.743085   0.747515
H  -1.282129   0.849911  -1.057374
H  -0.367536  -1.236076   1.006028
H   0.795569  -0.012018   0.221660
H  -0.008761  -1.447241  -0.823823
