14
butane_opt
C  -3.971330   0.264130  -0.042903
C  -2.685695  -0.638913   0.114168
H  -4.902226  -0.311241  -0.177755
H  -3.859788   0.791596  -0.899908
H  -4.143565   1.079400   0.863073
C  -1.390661   0.200918   0.074906
H  -2.652535  -1.249853  -0.673401
H  -2.805653  -1.345559   1.019479
C  -0.160734  -0.692165  -0.018719
H  -1.284113   0.870231   0.905539
H  -1.490973   0.906698  -0.890628
H   0.013191  -1.280340   0.816373
H   0.755381  -0.082644  -0.096741
H  -0.160797  -1.461396  -0.934014
