14
butane_opt
C  -3.956077   0.289062  -0.020404
C  -2.696852  -0.642973   0.069771
H  -4.885340  -0.313988  -0.032374
H  -3.876765   0.918522  -0.924855
H  -4.101828   0.974049   0.818705
C  -1.393905   0.169106   0.055191
H  -2.745710  -1.269587  -0.775136
H  -2.741939  -1.306235   0.965361
C  -0.142772  -0.680939  -0.005923
H  -1.312032   0.912962   0.983547
H  -1.477151   0.661860  -0.718861
H  -0.073915  -1.372975   0.996811
H   0.783312  -0.061144  -0.218964
H  -0.321586  -1.220067  -0.820535
