14
butane_opt
C  -3.958707   0.239553  -0.020038
C  -2.715920  -0.592355   0.052562
H  -4.849398  -0.370929   0.102640
H  -3.964232   0.909522  -0.993614
H  -3.923435   0.858623   0.821600
C  -1.411736   0.220308   0.056171
H  -2.768373  -1.197862  -0.750253
H  -2.730744  -1.269936   0.987686
C  -0.124128  -0.731647   0.007411
H  -1.373056   1.002173   0.946089
H  -1.425063   0.737023  -0.769563
H   0.024261  -1.319733   0.875140
H   0.778185  -0.161505  -0.098961
H  -0.247843  -1.288805  -0.832324
