butane_opt
 OpenBabel08242015413D

 14 13  0  0  0  0  0  0  0  0999 V2000
   -3.9441    0.2584   -0.0002 C   0  0  0  0  0  0  0  0  0  0  0  0
   -2.7122   -0.6245    0.0798 C   0  0  0  0  0  0  0  0  0  0  0  0
   -4.8717   -0.3462    0.0509 H   0  0  0  0  0  0  0  0  0  0  0  0
   -3.9478    0.8842   -0.9194 H   0  0  0  0  0  0  0  0  0  0  0  0
   -3.9413    0.9423    0.8519 H   0  0  0  0  0  0  0  0  0  0  0  0
   -1.4060    0.2085   -0.0017 C   0  0  0  0  0  0  0  0  0  0  0  0
   -2.7660   -1.2381   -0.7632 H   0  0  0  0  0  0  0  0  0  0  0  0
   -2.7793   -1.2773    0.9516 H   0  0  0  0  0  0  0  0  0  0  0  0
   -0.1491   -0.7067    0.0067 C   0  0  0  0  0  0  0  0  0  0  0  0
   -1.3718    0.9991    0.9050 H   0  0  0  0  0  0  0  0  0  0  0  0
   -1.4120    0.8270   -0.8524 H   0  0  0  0  0  0  0  0  0  0  0  0
   -0.1671   -1.2878    0.8578 H   0  0  0  0  0  0  0  0  0  0  0  0
    0.7659   -0.1254    0.2171 H   0  0  0  0  0  0  0  0  0  0  0  0
   -0.0005   -1.4879   -0.8767 H   0  0  0  0  0  0  0  0  0  0  0  0
  1  3  1  0  0  0  0
  1  2  1  0  0  0  0
  1  5  1  0  0  0  0
  2  8  1  0  0  0  0
  4  1  1  0  0  0  0
  6  9  1  0  0  0  0
  6  2  1  0  0  0  0
  6 10  1  0  0  0  0
  7  2  1  0  0  0  0
  9 13  1  0  0  0  0
  9 12  1  0  0  0  0
 11  6  1  0  0  0  0
 14  9  1  0  0  0  0
M  END
$$$$
