14
butane_opt
C  -3.941321   0.259540   0.010088
C  -2.699788  -0.602108   0.062719
H  -4.901281  -0.375149   0.160907
H  -3.852506   0.916148  -0.950788
H  -3.853989   0.849849   0.827383
C  -1.409654   0.189580  -0.003672
H  -2.746901  -1.258804  -0.788021
H  -2.723412  -1.212041   0.920571
C  -0.163118  -0.701697   0.034231
H  -1.342456   0.871404   0.810128
H  -1.485702   0.833554  -0.902088
H  -0.206036  -1.133341   0.765954
H   0.706714  -0.160673   0.247393
H  -0.052785  -1.554447  -0.900363
