butane_opt
 OpenBabel08242015413D

 14 13  0  0  0  0  0  0  0  0999 V2000
   -3.9511    0.2801    0.0355 C   0  0  0  0  0  0  0  0  0  0  0  0
   -2.6740   -0.6191   -0.0134 C   0  0  0  0  0  0  0  0  0  0  0  0
   -4.8136   -0.2867    0.2713 H   0  0  0  0  0  0  0  0  0  0  0  0
   -4.1353    0.9669   -0.8630 H   0  0  0  0  0  0  0  0  0  0  0  0
   -3.8457    0.8497    0.8237 H   0  0  0  0  0  0  0  0  0  0  0  0
   -1.4057    0.1528   -0.0034 C   0  0  0  0  0  0  0  0  0  0  0  0
   -2.7324   -1.2885   -0.8574 H   0  0  0  0  0  0  0  0  0  0  0  0
   -2.6006   -1.3194    0.8991 H   0  0  0  0  0  0  0  0  0  0  0  0
   -0.1897   -0.6831    0.0712 C   0  0  0  0  0  0  0  0  0  0  0  0
   -1.3847    0.8725    0.8393 H   0  0  0  0  0  0  0  0  0  0  0  0
   -1.3116    0.7382   -0.8926 H   0  0  0  0  0  0  0  0  0  0  0  0
   -0.2141   -1.2247    0.9222 H   0  0  0  0  0  0  0  0  0  0  0  0
    0.8004    0.0206    0.0224 H   0  0  0  0  0  0  0  0  0  0  0  0
   -0.1514   -1.3507   -0.8267 H   0  0  0  0  0  0  0  0  0  0  0  0
  1  3  1  0  0  0  0
  1  5  1  0  0  0  0
  2  6  1  0  0  0  0
  2  1  1  0  0  0  0
  2  8  1  0  0  0  0
  4  1  1  0  0  0  0
  6  9  1  0  0  0  0
  6 10  1  0  0  0  0
  7  2  1  0  0  0  0
  9 12  1  0  0  0  0
 11  6  1  0  0  0  0
 13  9  1  0  0  0  0
 14  9  1  0  0  0  0
M  END
$$$$
