14
butane_opt
C  -3.944052   0.258402  -0.000184
C  -2.712180  -0.624502   0.079827
H  -4.871664  -0.346203   0.050892
H  -3.947754   0.884228  -0.919431
H  -3.941316   0.942254   0.851933
C  -1.406025   0.208547  -0.001728
H  -2.766018  -1.238080  -0.763224
H  -2.779276  -1.277302   0.951626
C  -0.149054  -0.706697   0.006689
H  -1.371767   0.999095   0.904990
H  -1.412025   0.826961  -0.852351
H  -0.167054  -1.287809   0.857765
H   0.765919  -0.125418   0.217075
H  -0.000494  -1.487865  -0.876653
