butane_opt
 OpenBabel08242015413D

 14 13  0  0  0  0  0  0  0  0999 V2000
   -3.9246    0.2426    0.0804 C   0  0  0  0  0  0  0  0  0  0  0  0
   -2.7021   -0.5949    0.0048 C   0  0  0  0  0  0  0  0  0  0  0  0
   -4.8039   -0.2945    0.0179 H   0  0  0  0  0  0  0  0  0  0  0  0
   -3.9335    0.8755   -0.8864 H   0  0  0  0  0  0  0  0  0  0  0  0
   -3.9668    0.9482    0.9692 H   0  0  0  0  0  0  0  0  0  0  0  0
   -1.3996    0.2022   -0.0549 C   0  0  0  0  0  0  0  0  0  0  0  0
   -2.8029   -1.3447   -0.9328 H   0  0  0  0  0  0  0  0  0  0  0  0
   -2.7454   -1.2183    0.9070 H   0  0  0  0  0  0  0  0  0  0  0  0
   -0.1731   -0.7034    0.0778 C   0  0  0  0  0  0  0  0  0  0  0  0
   -1.4737    0.8157    0.7541 H   0  0  0  0  0  0  0  0  0  0  0  0
   -1.3958    0.8830   -0.9908 H   0  0  0  0  0  0  0  0  0  0  0  0
   -0.2671   -1.2852    0.9451 H   0  0  0  0  0  0  0  0  0  0  0  0
    0.7471   -0.1252    0.1728 H   0  0  0  0  0  0  0  0  0  0  0  0
    0.0123   -1.4770   -0.8230 H   0  0  0  0  0  0  0  0  0  0  0  0
  1  5  1  0  0  0  0
  2  1  1  0  0  0  0
  2  8  1  0  0  0  0
  3  1  1  0  0  0  0
  4  1  1  0  0  0  0
  6  2  1  0  0  0  0
  6  9  1  0  0  0  0
  6 10  1  0  0  0  0
  7  2  1  0  0  0  0
  9 13  1  0  0  0  0
  9 12  1  0  0  0  0
 11  6  1  0  0  0  0
 14  9  1  0  0  0  0
M  END
$$$$
