14
butane_opt
C  -3.960695   0.273859   0.075960
C  -2.701998  -0.636258  -0.050873
H  -4.863271  -0.317298   0.261624
H  -4.150143   0.986128  -0.906803
H  -3.871263   0.953837   0.937952
C  -1.393091   0.165358  -0.027326
H  -2.718667  -1.317549  -0.904953
H  -2.597815  -1.225022   0.818629
C  -0.150323  -0.667909   0.092387
H  -1.480889   0.825900   0.784320
H  -1.245520   0.766197  -0.921473
H  -0.202358  -1.354768   1.029464
H   0.698147  -0.105886  -0.027023
H  -0.110541  -1.301040  -0.728566
