butane_opt
 OpenBabel08242015413D

 14 13  0  0  0  0  0  0  0  0999 V2000
   -3.9115    0.2427   -0.0257 C   0  0  0  0  0  0  0  0  0  0  0  0
   -2.7026   -0.6014    0.0539 C   0  0  0  0  0  0  0  0  0  0  0  0
   -4.8335   -0.3603    0.0731 H   0  0  0  0  0  0  0  0  0  0  0  0
   -3.9234    0.9397   -0.9598 H   0  0  0  0  0  0  0  0  0  0  0  0
   -3.8710    0.8870    0.8260 H   0  0  0  0  0  0  0  0  0  0  0  0
   -1.4199    0.2208    0.0849 C   0  0  0  0  0  0  0  0  0  0  0  0
   -2.6797   -1.2597   -0.8026 H   0  0  0  0  0  0  0  0  0  0  0  0
   -2.8016   -1.2639    0.9398 H   0  0  0  0  0  0  0  0  0  0  0  0
   -0.1687   -0.7119   -0.0112 C   0  0  0  0  0  0  0  0  0  0  0  0
   -1.3969    0.8436    0.9302 H   0  0  0  0  0  0  0  0  0  0  0  0
   -1.5601    0.7853   -0.7637 H   0  0  0  0  0  0  0  0  0  0  0  0
    0.0385   -1.4419    0.9583 H   0  0  0  0  0  0  0  0  0  0  0  0
    0.7021   -0.0999   -0.1519 H   0  0  0  0  0  0  0  0  0  0  0  0
   -0.2692   -1.2926   -0.8111 H   0  0  0  0  0  0  0  0  0  0  0  0
  1  2  1  0  0  0  0
  1  3  1  0  0  0  0
  1  5  1  0  0  0  0
  2  6  1  0  0  0  0
  2  8  1  0  0  0  0
  4  1  1  0  0  0  0
  6 10  1  0  0  0  0
  7  2  1  0  0  0  0
  9  6  1  0  0  0  0
  9 12  1  0  0  0  0
 11  6  1  0  0  0  0
 13  9  1  0  0  0  0
 14  9  1  0  0  0  0
M  END
$$$$
