butane_opt
 OpenBabel08242015413D

 14 13  0  0  0  0  0  0  0  0999 V2000
   -3.9416    0.2537    0.0525 C   0  0  0  0  0  0  0  0  0  0  0  0
   -2.7143   -0.6104   -0.0152 C   0  0  0  0  0  0  0  0  0  0  0  0
   -4.8820   -0.3525    0.0494 H   0  0  0  0  0  0  0  0  0  0  0  0
   -4.0174    0.8217   -0.7449 H   0  0  0  0  0  0  0  0  0  0  0  0
   -3.9644    1.0079    0.9698 H   0  0  0  0  0  0  0  0  0  0  0  0
   -1.4024    0.2018   -0.0132 C   0  0  0  0  0  0  0  0  0  0  0  0
   -2.8597   -1.3762   -0.9740 H   0  0  0  0  0  0  0  0  0  0  0  0
   -2.7373   -1.1584    0.8548 H   0  0  0  0  0  0  0  0  0  0  0  0
   -0.1351   -0.7069    0.0782 C   0  0  0  0  0  0  0  0  0  0  0  0
   -1.4819    0.8307    0.7992 H   0  0  0  0  0  0  0  0  0  0  0  0
   -1.2955    0.9313   -0.9632 H   0  0  0  0  0  0  0  0  0  0  0  0
    0.0443   -1.4665    1.0348 H   0  0  0  0  0  0  0  0  0  0  0  0
    0.7067   -0.1846   -0.1317 H   0  0  0  0  0  0  0  0  0  0  0  0
   -0.2006   -1.1937   -0.6620 H   0  0  0  0  0  0  0  0  0  0  0  0
  1  5  1  0  0  0  0
  2  6  1  0  0  0  0
  2  1  1  0  0  0  0
  2  8  1  0  0  0  0
  3  1  1  0  0  0  0
  4  1  1  0  0  0  0
  6  9  1  0  0  0  0
  6 10  1  0  0  0  0
  7  2  1  0  0  0  0
  9 12  1  0  0  0  0
 11  6  1  0  0  0  0
 13  9  1  0  0  0  0
 14  9  1  0  0  0  0
M  END
$$$$
