butane_opt
 OpenBabel08242015413D

 14 13  0  0  0  0  0  0  0  0999 V2000
   -3.9213    0.2480    0.0437 C   0  0  0  0  0  0  0  0  0  0  0  0
   -2.7037   -0.5900   -0.0111 C   0  0  0  0  0  0  0  0  0  0  0  0
   -4.8702   -0.3845    0.0309 H   0  0  0  0  0  0  0  0  0  0  0  0
   -3.9720    0.7253   -0.7537 H   0  0  0  0  0  0  0  0  0  0  0  0
   -3.8400    1.0494    0.9928 H   0  0  0  0  0  0  0  0  0  0  0  0
   -1.4142    0.1963   -0.0149 C   0  0  0  0  0  0  0  0  0  0  0  0
   -2.7485   -1.2676   -0.8448 H   0  0  0  0  0  0  0  0  0  0  0  0
   -2.7609   -1.1175    0.8412 H   0  0  0  0  0  0  0  0  0  0  0  0
   -0.1539   -0.7188    0.0641 C   0  0  0  0  0  0  0  0  0  0  0  0
   -1.4689    0.8692    0.8492 H   0  0  0  0  0  0  0  0  0  0  0  0
   -1.3820    0.8090   -0.9310 H   0  0  0  0  0  0  0  0  0  0  0  0
   -0.1253   -1.5146    1.1382 H   0  0  0  0  0  0  0  0  0  0  0  0
    0.7440   -0.1182   -0.1596 H   0  0  0  0  0  0  0  0  0  0  0  0
   -0.2701   -1.1601   -0.6714 H   0  0  0  0  0  0  0  0  0  0  0  0
  1  5  1  0  0  0  0
  2  1  1  0  0  0  0
  2  8  1  0  0  0  0
  3  1  1  0  0  0  0
  4  1  1  0  0  0  0
  6  2  1  0  0  0  0
  6  9  1  0  0  0  0
  6 10  1  0  0  0  0
  7  2  1  0  0  0  0
  9 12  1  0  0  0  0
 11  6  1  0  0  0  0
 13  9  1  0  0  0  0
 14  9  1  0  0  0  0
M  END
$$$$
