14
butane_opt
C  -3.932367   0.274606   0.049962
C  -2.693375  -0.632021   0.026987
H  -4.771121  -0.244568  -0.145047
H  -3.970478   0.759421  -0.751853
H  -4.032854   1.120286   1.023462
C  -1.398812   0.158569  -0.033210
H  -2.681456  -1.398127  -0.902429
H  -2.646101  -1.178941   0.880184
C  -0.183434  -0.674726   0.060511
H  -1.327148   0.808641   0.778235
H  -1.426255   0.845090  -0.981986
H  -0.256887  -1.428694   1.083699
H   0.765460   0.022223  -0.048796
H  -0.186397  -1.289416  -0.719199
