14
butane_opt
C  -3.928679   0.262590   0.042697
C  -2.694558  -0.620769  -0.001742
H  -4.885296  -0.319517  -0.037652
H  -3.978431   0.806018  -0.792696
H  -3.906406   0.942996   0.950124
C  -1.426390   0.208880   0.003448
H  -2.679266  -1.374003  -0.899982
H  -2.688500  -1.203566   0.866177
C  -0.161080  -0.696816   0.039645
H  -1.417156   0.875366   0.911453
H  -1.364385   0.758700  -0.831623
H  -0.100881  -1.584552   1.123860
H   0.707798  -0.145661  -0.208372
H  -0.178414  -1.069470  -0.627667
