butane_opt
 OpenBabel08242015413D

 14 13  0  0  0  0  0  0  0  0999 V2000
   -3.9390    0.2606    0.0316 C   0  0  0  0  0  0  0  0  0  0  0  0
   -2.7106   -0.5925    0.0196 C   0  0  0  0  0  0  0  0  0  0  0  0
   -4.9194   -0.3856   -0.0028 H   0  0  0  0  0  0  0  0  0  0  0  0
   -3.8779    0.8049   -0.8257 H   0  0  0  0  0  0  0  0  0  0  0  0
   -3.9499    0.9938    0.8801 H   0  0  0  0  0  0  0  0  0  0  0  0
   -1.3999    0.1870    0.0025 C   0  0  0  0  0  0  0  0  0  0  0  0
   -2.7344   -1.3231   -0.8898 H   0  0  0  0  0  0  0  0  0  0  0  0
   -2.6319   -1.2543    0.9133 H   0  0  0  0  0  0  0  0  0  0  0  0
   -0.1598   -0.7089    0.0458 C   0  0  0  0  0  0  0  0  0  0  0  0
   -1.3365    0.9434    0.8634 H   0  0  0  0  0  0  0  0  0  0  0  0
   -1.4100    0.7643   -0.8468 H   0  0  0  0  0  0  0  0  0  0  0  0
   -0.1211   -1.4416    1.0459 H   0  0  0  0  0  0  0  0  0  0  0  0
    0.7304   -0.1338   -0.1557 H   0  0  0  0  0  0  0  0  0  0  0  0
   -0.2426   -1.2067   -0.7113 H   0  0  0  0  0  0  0  0  0  0  0  0
  1  5  1  0  0  0  0
  2  1  1  0  0  0  0
  2  8  1  0  0  0  0
  3  1  1  0  0  0  0
  4  1  1  0  0  0  0
  6  2  1  0  0  0  0
  6  9  1  0  0  0  0
  6 10  1  0  0  0  0
  7  2  1  0  0  0  0
  9 12  1  0  0  0  0
 11  6  1  0  0  0  0
 13  9  1  0  0  0  0
 14  9  1  0  0  0  0
M  END
$$$$
