14
butane_opt
C  -3.941613   0.253686   0.052476
C  -2.714328  -0.610432  -0.015166
H  -4.882002  -0.352540   0.049353
H  -4.017369   0.821711  -0.744932
H  -3.964410   1.007893   0.969802
C  -1.402443   0.201755  -0.013158
H  -2.859749  -1.376185  -0.974031
H  -2.737289  -1.158351   0.854822
C  -0.135144  -0.706928   0.078195
H  -1.481899   0.830682   0.799169
H  -1.295470   0.931254  -0.963240
H   0.044325  -1.466531   1.034773
H   0.706700  -0.184647  -0.131667
H  -0.200639  -1.193682  -0.662038
