14
butane_opt
C  -3.930396   0.281336   0.012979
C  -2.696209  -0.645607   0.027389
H  -4.813016  -0.270413   0.082525
H  -4.022698   0.904893  -0.877700
H  -3.937259   0.994419   0.918998
C  -1.419154   0.166579   0.013223
H  -2.699358  -1.384006  -0.842477
H  -2.709247  -1.214268   0.861691
C  -0.162845  -0.678426   0.026334
H  -1.354063   0.944846   0.959705
H  -1.347583   0.775234  -0.831735
H  -0.147582  -1.493793   1.076812
H   0.795496  -0.063205  -0.111908
H  -0.290978  -1.141635  -0.730619
