14
butane_opt
C  -3.930004   0.252670   0.007118
C  -2.709513  -0.603249   0.038377
H  -4.898921  -0.393690   0.192557
H  -4.060248   1.023225  -1.004742
H  -3.856365   0.690921   0.726320
C  -1.395450   0.220612   0.027446
H  -2.795580  -1.256890  -0.844049
H  -2.653509  -1.239085   0.960579
C  -0.170515  -0.717202   0.021771
H  -1.399798   1.012009   0.985457
H  -1.412191   0.781433  -0.784942
H  -0.090699  -1.348717   0.910529
H   0.704089  -0.145456   0.045877
H  -0.082803  -1.445687  -0.921806
