butane_opt
 OpenBabel08242015413D

 14 13  0  0  0  0  0  0  0  0999 V2000
   -3.9321    0.2487   -0.0046 C   0  0  0  0  0  0  0  0  0  0  0  0
   -2.6852   -0.5882    0.0325 C   0  0  0  0  0  0  0  0  0  0  0  0
   -4.9013   -0.4080    0.2370 H   0  0  0  0  0  0  0  0  0  0  0  0
   -3.9930    1.1100   -1.0713 H   0  0  0  0  0  0  0  0  0  0  0  0
   -3.7627    0.6605    0.6983 H   0  0  0  0  0  0  0  0  0  0  0  0
   -1.4114    0.2159    0.0589 C   0  0  0  0  0  0  0  0  0  0  0  0
   -2.7564   -1.2145   -0.7753 H   0  0  0  0  0  0  0  0  0  0  0  0
   -2.7238   -1.3326    1.0205 H   0  0  0  0  0  0  0  0  0  0  0  0
   -0.1779   -0.7114    0.0052 C   0  0  0  0  0  0  0  0  0  0  0  0
   -1.3921    0.9545    0.9633 H   0  0  0  0  0  0  0  0  0  0  0  0
   -1.4313    0.7054   -0.7629 H   0  0  0  0  0  0  0  0  0  0  0  0
   -0.1125   -1.2437    0.8315 H   0  0  0  0  0  0  0  0  0  0  0  0
    0.7102   -0.1402    0.0444 H   0  0  0  0  0  0  0  0  0  0  0  0
   -0.1742   -1.5351   -0.8972 H   0  0  0  0  0  0  0  0  0  0  0  0
  1  2  1  0  0  0  0
  1  3  1  0  0  0  0
  1  5  1  0  0  0  0
  2  6  1  0  0  0  0
  2  8  1  0  0  0  0
  4  1  1  0  0  0  0
  6 10  1  0  0  0  0
  7  2  1  0  0  0  0
  9 13  1  0  0  0  0
  9  6  1  0  0  0  0
  9 12  1  0  0  0  0
 11  6  1  0  0  0  0
 14  9  1  0  0  0  0
M  END
$$$$
