14
butane_opt
C  -3.944191   0.263672   0.019676
C  -2.709974  -0.620996   0.028347
H  -4.865850  -0.314304   0.180812
H  -4.031189   0.991669  -0.954322
H  -3.888263   0.815922   0.790558
C  -1.402913   0.201296   0.013186
H  -2.751561  -1.323674  -0.852563
H  -2.759215  -1.244436   0.947182
C  -0.146680  -0.700327   0.027884
H  -1.372750   0.935808   0.908510
H  -1.396396   0.763047  -0.816944
H  -0.142872  -1.306044   0.932025
H   0.729849  -0.150095   0.054991
H  -0.097223  -1.364713  -0.832586
