14
butane_opt
C  -3.919349   0.235382   0.035319
C  -2.696594  -0.574459   0.009781
H  -4.902785  -0.430160  -0.008154
H  -4.033600   0.811605  -0.796963
H  -3.884694   1.019040   0.948551
C  -1.416629   0.196422  -0.006873
H  -2.796654  -1.346505  -0.947725
H  -2.681595  -1.149713   0.887971
C  -0.155835  -0.714174   0.054031
H  -1.456350   0.909018   0.874806
H  -1.501335   0.810033  -0.843608
H  -0.118416  -1.583610   1.097423
H   0.777074  -0.084923  -0.181083
H  -0.146000  -1.152600  -0.678212
