butane_opt
 OpenBabel08242015413D

 14 13  0  0  0  0  0  0  0  0999 V2000
   -3.9810    0.2850   -0.0233 C   0  0  0  0  0  0  0  0  0  0  0  0
   -2.7017   -0.6410    0.1047 C   0  0  0  0  0  0  0  0  0  0  0  0
   -4.8779   -0.2704    0.0631 H   0  0  0  0  0  0  0  0  0  0  0  0
   -3.9739    1.0002   -1.0084 H   0  0  0  0  0  0  0  0  0  0  0  0
   -4.0489    0.8143    0.7545 H   0  0  0  0  0  0  0  0  0  0  0  0
   -1.3772    0.1754    0.0274 C   0  0  0  0  0  0  0  0  0  0  0  0
   -2.7440   -1.2590   -0.6766 H   0  0  0  0  0  0  0  0  0  0  0  0
   -2.6230   -1.2947    0.9839 H   0  0  0  0  0  0  0  0  0  0  0  0
   -0.1484   -0.6833   -0.0080 C   0  0  0  0  0  0  0  0  0  0  0  0
   -1.2892    0.8548    0.9145 H   0  0  0  0  0  0  0  0  0  0  0  0
   -1.3547    0.7922   -0.8231 H   0  0  0  0  0  0  0  0  0  0  0  0
   -0.2175   -1.0694    0.7147 H   0  0  0  0  0  0  0  0  0  0  0  0
    0.7756   -0.1005    0.2991 H   0  0  0  0  0  0  0  0  0  0  0  0
   -0.1658   -1.5757   -1.0275 H   0  0  0  0  0  0  0  0  0  0  0  0
  1  3  1  0  0  0  0
  1  2  1  0  0  0  0
  1  5  1  0  0  0  0
  2  8  1  0  0  0  0
  4  1  1  0  0  0  0
  6  2  1  0  0  0  0
  6 10  1  0  0  0  0
  7  2  1  0  0  0  0
  9  6  1  0  0  0  0
  9 13  1  0  0  0  0
  9 12  1  0  0  0  0
 11  6  1  0  0  0  0
 14  9  1  0  0  0  0
M  END
$$$$
