butane_opt
 OpenBabel08242015413D

 14 13  0  0  0  0  0  0  0  0999 V2000
   -3.9333    0.2488   -0.0056 C   0  0  0  0  0  0  0  0  0  0  0  0
   -2.7081   -0.5767    0.0347 C   0  0  0  0  0  0  0  0  0  0  0  0
   -4.9275   -0.3838    0.1611 H   0  0  0  0  0  0  0  0  0  0  0  0
   -3.9106    0.9660   -0.9816 H   0  0  0  0  0  0  0  0  0  0  0  0
   -3.7996    0.7892    0.7854 H   0  0  0  0  0  0  0  0  0  0  0  0
   -1.4193    0.1997    0.0587 C   0  0  0  0  0  0  0  0  0  0  0  0
   -2.7645   -1.2819   -0.7992 H   0  0  0  0  0  0  0  0  0  0  0  0
   -2.7008   -1.2870    0.9679 H   0  0  0  0  0  0  0  0  0  0  0  0
   -0.1594   -0.7180    0.0134 C   0  0  0  0  0  0  0  0  0  0  0  0
   -1.3905    0.8533    0.9290 H   0  0  0  0  0  0  0  0  0  0  0  0
   -1.3772    0.8430   -0.8159 H   0  0  0  0  0  0  0  0  0  0  0  0
   -0.0896   -1.2588    0.8808 H   0  0  0  0  0  0  0  0  0  0  0  0
    0.7219   -0.1474   -0.0722 H   0  0  0  0  0  0  0  0  0  0  0  0
   -0.1424   -1.4085   -0.8623 H   0  0  0  0  0  0  0  0  0  0  0  0
  1  2  1  0  0  0  0
  1  3  1  0  0  0  0
  1  5  1  0  0  0  0
  2  6  1  0  0  0  0
  2  8  1  0  0  0  0
  4  1  1  0  0  0  0
  6 10  1  0  0  0  0
  7  2  1  0  0  0  0
  9  6  1  0  0  0  0
  9 12  1  0  0  0  0
 11  6  1  0  0  0  0
 13  9  1  0  0  0  0
 14  9  1  0  0  0  0
M  END
$$$$
