14
butane_opt
C  -3.971774   0.283561  -0.030569
C  -2.691619  -0.647339   0.065511
H  -4.845048  -0.298814   0.161578
H  -4.055517   0.956504  -0.928644
H  -4.025743   0.839650   0.763070
C  -1.392605   0.178570   0.066134
H  -2.724773  -1.322262  -0.762458
H  -2.725840  -1.182195   0.912105
C  -0.141054  -0.691054  -0.006915
H  -1.324764   0.898306   0.974488
H  -1.469979   0.771280  -0.817049
H  -0.081060  -1.315838   0.894146
H   0.791619  -0.024091  -0.069811
H  -0.206483  -1.270217  -0.813759
