butane_opt
 OpenBabel08242015413D

 14 13  0  0  0  0  0  0  0  0999 V2000
   -3.9481    0.2489   -0.0393 C   0  0  0  0  0  0  0  0  0  0  0  0
   -2.7026   -0.5968    0.0893 C   0  0  0  0  0  0  0  0  0  0  0  0
   -4.8851   -0.4232    0.0175 H   0  0  0  0  0  0  0  0  0  0  0  0
   -3.8592    0.9072   -1.0086 H   0  0  0  0  0  0  0  0  0  0  0  0
   -4.0587    0.8652    0.7640 H   0  0  0  0  0  0  0  0  0  0  0  0
   -1.4114    0.2086    0.1012 C   0  0  0  0  0  0  0  0  0  0  0  0
   -2.7323   -1.2678   -0.7362 H   0  0  0  0  0  0  0  0  0  0  0  0
   -2.7994   -1.1606    0.9170 H   0  0  0  0  0  0  0  0  0  0  0  0
   -0.1312   -0.7212   -0.0289 C   0  0  0  0  0  0  0  0  0  0  0  0
   -1.3195    0.9341    0.9593 H   0  0  0  0  0  0  0  0  0  0  0  0
   -1.5289    0.8261   -0.7883 H   0  0  0  0  0  0  0  0  0  0  0  0
   -0.0243   -1.3952    0.9385 H   0  0  0  0  0  0  0  0  0  0  0  0
    0.7987   -0.1304   -0.2151 H   0  0  0  0  0  0  0  0  0  0  0  0
   -0.2817   -1.3080   -0.8585 H   0  0  0  0  0  0  0  0  0  0  0  0
  1  3  1  0  0  0  0
  1  2  1  0  0  0  0
  1  5  1  0  0  0  0
  2  6  1  0  0  0  0
  2  8  1  0  0  0  0
  4  1  1  0  0  0  0
  6 10  1  0  0  0  0
  7  2  1  0  0  0  0
  9  6  1  0  0  0  0
  9 12  1  0  0  0  0
 11  6  1  0  0  0  0
 13  9  1  0  0  0  0
 14  9  1  0  0  0  0
M  END
$$$$
