14
butane_opt
C  -3.977492   0.281159  -0.034015
C  -2.697664  -0.644129   0.113341
H  -4.824973  -0.243619  -0.156054
H  -3.866840   0.879936  -0.913421
H  -4.125310   0.999020   0.862041
C  -1.375630   0.183584   0.050798
H  -2.702469  -1.382467  -0.783810
H  -2.622209  -1.301980   1.025161
C  -0.167096  -0.685906  -0.017320
H  -1.282583   0.833567   0.938710
H  -1.382780   0.788449  -0.827109
H  -0.066199  -1.264114   0.876133
H   0.728935  -0.076390  -0.036576
H  -0.266791  -1.311720  -0.895201
