butane_opt
 OpenBabel08242015413D

 14 13  0  0  0  0  0  0  0  0999 V2000
   -3.9498    0.2581   -0.0026 C   0  0  0  0  0  0  0  0  0  0  0  0
   -2.7017   -0.5989    0.0565 C   0  0  0  0  0  0  0  0  0  0  0  0
   -4.8651   -0.3394    0.1546 H   0  0  0  0  0  0  0  0  0  0  0  0
   -3.9545    0.9671   -0.9806 H   0  0  0  0  0  0  0  0  0  0  0  0
   -3.9185    0.8400    0.7953 H   0  0  0  0  0  0  0  0  0  0  0  0
   -1.3930    0.1819    0.0289 C   0  0  0  0  0  0  0  0  0  0  0  0
   -2.7340   -1.2804   -0.8120 H   0  0  0  0  0  0  0  0  0  0  0  0
   -2.7211   -1.2555    0.9543 H   0  0  0  0  0  0  0  0  0  0  0  0
   -0.1651   -0.6987    0.0137 C   0  0  0  0  0  0  0  0  0  0  0  0
   -1.4036    0.9340    0.9515 H   0  0  0  0  0  0  0  0  0  0  0  0
   -1.3892    0.7512   -0.8305 H   0  0  0  0  0  0  0  0  0  0  0  0
   -0.1364   -1.2587    0.8752 H   0  0  0  0  0  0  0  0  0  0  0  0
    0.7400   -0.1443    0.0235 H   0  0  0  0  0  0  0  0  0  0  0  0
   -0.1254   -1.3898   -0.8661 H   0  0  0  0  0  0  0  0  0  0  0  0
  1  2  1  0  0  0  0
  1  3  1  0  0  0  0
  1  5  1  0  0  0  0
  2  8  1  0  0  0  0
  4  1  1  0  0  0  0
  6  2  1  0  0  0  0
  6 10  1  0  0  0  0
  7  2  1  0  0  0  0
  9 13  1  0  0  0  0
  9  6  1  0  0  0  0
  9 12  1  0  0  0  0
 11  6  1  0  0  0  0
 14  9  1  0  0  0  0
M  END
$$$$
