14
butane_opt
C  -3.962540   0.283537   0.028100
C  -2.698598  -0.658224   0.038751
H  -4.824756  -0.273305  -0.150999
H  -3.956224   0.710666  -0.719331
H  -4.175157   1.215567   1.055900
C  -1.376660   0.173711  -0.019111
H  -2.704349  -1.297482  -0.817752
H  -2.718994  -1.322863   0.986855
C  -0.152740  -0.681127   0.036123
H  -1.382436   0.856950   0.799812
H  -1.413855   0.852276  -0.965491
H  -0.217655  -1.341613   0.990102
H   0.755337  -0.057287   0.032567
H  -0.094609  -1.234868  -0.738760
