butane_opt
 OpenBabel08242015413D

 14 13  0  0  0  0  0  0  0  0999 V2000
   -3.9625    0.2835    0.0281 C   0  0  0  0  0  0  0  0  0  0  0  0
   -2.6986   -0.6582    0.0388 C   0  0  0  0  0  0  0  0  0  0  0  0
   -4.8248   -0.2733   -0.1510 H   0  0  0  0  0  0  0  0  0  0  0  0
   -3.9562    0.7107   -0.7193 H   0  0  0  0  0  0  0  0  0  0  0  0
   -4.1752    1.2156    1.0559 H   0  0  0  0  0  0  0  0  0  0  0  0
   -1.3767    0.1737   -0.0191 C   0  0  0  0  0  0  0  0  0  0  0  0
   -2.7043   -1.2975   -0.8178 H   0  0  0  0  0  0  0  0  0  0  0  0
   -2.7190   -1.3229    0.9869 H   0  0  0  0  0  0  0  0  0  0  0  0
   -0.1527   -0.6811    0.0361 C   0  0  0  0  0  0  0  0  0  0  0  0
   -1.3824    0.8569    0.7998 H   0  0  0  0  0  0  0  0  0  0  0  0
   -1.4139    0.8523   -0.9655 H   0  0  0  0  0  0  0  0  0  0  0  0
   -0.2177   -1.3416    0.9901 H   0  0  0  0  0  0  0  0  0  0  0  0
    0.7553   -0.0573    0.0326 H   0  0  0  0  0  0  0  0  0  0  0  0
   -0.0946   -1.2349   -0.7388 H   0  0  0  0  0  0  0  0  0  0  0  0
  1  2  1  0  0  0  0
  1  5  1  0  0  0  0
  2  8  1  0  0  0  0
  3  1  1  0  0  0  0
  4  1  1  0  0  0  0
  6  9  1  0  0  0  0
  6  2  1  0  0  0  0
  6 10  1  0  0  0  0
  7  2  1  0  0  0  0
  9 12  1  0  0  0  0
 11  6  1  0  0  0  0
 13  9  1  0  0  0  0
 14  9  1  0  0  0  0
M  END
$$$$
