butane_opt
 OpenBabel08242015413D

 14 13  0  0  0  0  0  0  0  0999 V2000
   -3.9775    0.2812   -0.0340 C   0  0  0  0  0  0  0  0  0  0  0  0
   -2.6977   -0.6441    0.1133 C   0  0  0  0  0  0  0  0  0  0  0  0
   -4.8250   -0.2436   -0.1561 H   0  0  0  0  0  0  0  0  0  0  0  0
   -3.8668    0.8799   -0.9134 H   0  0  0  0  0  0  0  0  0  0  0  0
   -4.1253    0.9990    0.8620 H   0  0  0  0  0  0  0  0  0  0  0  0
   -1.3756    0.1836    0.0508 C   0  0  0  0  0  0  0  0  0  0  0  0
   -2.7025   -1.3825   -0.7838 H   0  0  0  0  0  0  0  0  0  0  0  0
   -2.6222   -1.3020    1.0252 H   0  0  0  0  0  0  0  0  0  0  0  0
   -0.1671   -0.6859   -0.0173 C   0  0  0  0  0  0  0  0  0  0  0  0
   -1.2826    0.8336    0.9387 H   0  0  0  0  0  0  0  0  0  0  0  0
   -1.3828    0.7884   -0.8271 H   0  0  0  0  0  0  0  0  0  0  0  0
   -0.0662   -1.2641    0.8761 H   0  0  0  0  0  0  0  0  0  0  0  0
    0.7289   -0.0764   -0.0366 H   0  0  0  0  0  0  0  0  0  0  0  0
   -0.2668   -1.3117   -0.8952 H   0  0  0  0  0  0  0  0  0  0  0  0
  1  2  1  0  0  0  0
  1  5  1  0  0  0  0
  2  8  1  0  0  0  0
  3  1  1  0  0  0  0
  4  1  1  0  0  0  0
  6  2  1  0  0  0  0
  6 10  1  0  0  0  0
  7  2  1  0  0  0  0
  9  6  1  0  0  0  0
  9 12  1  0  0  0  0
 11  6  1  0  0  0  0
 13  9  1  0  0  0  0
 14  9  1  0  0  0  0
M  END
$$$$
