butane_opt
 OpenBabel08242015413D

 14 13  0  0  0  0  0  0  0  0999 V2000
   -3.9380    0.2492    0.0812 C   0  0  0  0  0  0  0  0  0  0  0  0
   -2.6901   -0.5906   -0.0127 C   0  0  0  0  0  0  0  0  0  0  0  0
   -4.8618   -0.3436    0.0715 H   0  0  0  0  0  0  0  0  0  0  0  0
   -3.9222    0.8059   -0.7134 H   0  0  0  0  0  0  0  0  0  0  0  0
   -3.8418    0.9805    0.9898 H   0  0  0  0  0  0  0  0  0  0  0  0
   -1.4141    0.1809   -0.0717 C   0  0  0  0  0  0  0  0  0  0  0  0
   -2.6936   -1.3544   -0.8991 H   0  0  0  0  0  0  0  0  0  0  0  0
   -2.7180   -1.1884    0.8804 H   0  0  0  0  0  0  0  0  0  0  0  0
   -0.1696   -0.6893    0.0913 C   0  0  0  0  0  0  0  0  0  0  0  0
   -1.5195    0.7137    0.6365 H   0  0  0  0  0  0  0  0  0  0  0  0
   -1.3999    0.9270   -1.0172 H   0  0  0  0  0  0  0  0  0  0  0  0
   -0.2203   -1.2332    0.9440 H   0  0  0  0  0  0  0  0  0  0  0  0
    0.6994   -0.1515    0.2973 H   0  0  0  0  0  0  0  0  0  0  0  0
   -0.0098   -1.4375   -0.7999 H   0  0  0  0  0  0  0  0  0  0  0  0
  1  5  1  0  0  0  0
  2  1  1  0  0  0  0
  2  8  1  0  0  0  0
  3  1  1  0  0  0  0
  4  1  1  0  0  0  0
  6  2  1  0  0  0  0
  6  9  1  0  0  0  0
  6 10  1  0  0  0  0
  7  2  1  0  0  0  0
  9 13  1  0  0  0  0
  9 12  1  0  0  0  0
 11  6  1  0  0  0  0
 14  9  1  0  0  0  0
M  END
$$$$
