14
butane_opt
C  -3.941272   0.266185   0.014583
C  -2.722657  -0.627328   0.062629
H  -4.892412  -0.399273   0.079615
H  -3.952680   0.930551  -0.941192
H  -3.965037   0.839067   0.847253
C  -1.410624   0.221015   0.003951
H  -2.753154  -1.257349  -0.789315
H  -2.679994  -1.208365   0.930069
C  -0.142951  -0.710111   0.031958
H  -1.286226   0.853901   0.809738
H  -1.385010   0.851546  -0.931720
H  -0.235446  -1.155676   0.793607
H   0.701218  -0.182332   0.199511
H   0.050611  -1.559677  -0.941354
