14
butane_opt
C  -3.935410   0.297159   0.068229
C  -2.692422  -0.640477   0.010896
H  -4.806381  -0.259531  -0.223523
H  -3.807901   0.624202  -0.688578
H  -4.020604   1.115856   1.050256
C  -1.400205   0.161246  -0.045215
H  -2.827912  -1.370235  -0.865320
H  -2.612632  -1.214626   0.858964
C  -0.183015  -0.675308   0.068515
H  -1.426002   0.723018   0.719866
H  -1.380181   0.905477  -1.004119
H  -0.188207  -1.410758   1.068769
H   0.771912  -0.048967   0.033870
H  -0.219780  -1.235000  -0.706971
