butane_opt
 OpenBabel08242015413D

 14 13  0  0  0  0  0  0  0  0999 V2000
   -3.9354    0.2972    0.0682 C   0  0  0  0  0  0  0  0  0  0  0  0
   -2.6924   -0.6405    0.0109 C   0  0  0  0  0  0  0  0  0  0  0  0
   -4.8064   -0.2595   -0.2235 H   0  0  0  0  0  0  0  0  0  0  0  0
   -3.8079    0.6242   -0.6886 H   0  0  0  0  0  0  0  0  0  0  0  0
   -4.0206    1.1159    1.0503 H   0  0  0  0  0  0  0  0  0  0  0  0
   -1.4002    0.1612   -0.0452 C   0  0  0  0  0  0  0  0  0  0  0  0
   -2.8279   -1.3702   -0.8653 H   0  0  0  0  0  0  0  0  0  0  0  0
   -2.6126   -1.2146    0.8590 H   0  0  0  0  0  0  0  0  0  0  0  0
   -0.1830   -0.6753    0.0685 C   0  0  0  0  0  0  0  0  0  0  0  0
   -1.4260    0.7230    0.7199 H   0  0  0  0  0  0  0  0  0  0  0  0
   -1.3802    0.9055   -1.0041 H   0  0  0  0  0  0  0  0  0  0  0  0
   -0.1882   -1.4108    1.0688 H   0  0  0  0  0  0  0  0  0  0  0  0
    0.7719   -0.0490    0.0339 H   0  0  0  0  0  0  0  0  0  0  0  0
   -0.2198   -1.2350   -0.7070 H   0  0  0  0  0  0  0  0  0  0  0  0
  1  5  1  0  0  0  0
  2  1  1  0  0  0  0
  2  8  1  0  0  0  0
  3  1  1  0  0  0  0
  4  1  1  0  0  0  0
  6  2  1  0  0  0  0
  6  9  1  0  0  0  0
  6 10  1  0  0  0  0
  7  2  1  0  0  0  0
  9 12  1  0  0  0  0
 11  6  1  0  0  0  0
 13  9  1  0  0  0  0
 14  9  1  0  0  0  0
M  END
$$$$
