butane_opt
 OpenBabel08242015413D

 14 13  0  0  0  0  0  0  0  0999 V2000
   -3.9672    0.2817    0.0746 C   0  0  0  0  0  0  0  0  0  0  0  0
   -2.6881   -0.6408    0.0011 C   0  0  0  0  0  0  0  0  0  0  0  0
   -4.8235   -0.2909   -0.0228 H   0  0  0  0  0  0  0  0  0  0  0  0
   -4.0395    0.7619   -0.7378 H   0  0  0  0  0  0  0  0  0  0  0  0
   -3.9002    1.0414    1.0470 H   0  0  0  0  0  0  0  0  0  0  0  0
   -1.3829    0.1793   -0.0722 C   0  0  0  0  0  0  0  0  0  0  0  0
   -2.7352   -1.3719   -0.8819 H   0  0  0  0  0  0  0  0  0  0  0  0
   -2.7289   -1.2193    0.8536 H   0  0  0  0  0  0  0  0  0  0  0  0
   -0.1709   -0.6867    0.0955 C   0  0  0  0  0  0  0  0  0  0  0  0
   -1.4094    0.8228    0.7018 H   0  0  0  0  0  0  0  0  0  0  0  0
   -1.2974    0.9594   -1.0803 H   0  0  0  0  0  0  0  0  0  0  0  0
   -0.2392   -1.2465    0.9685 H   0  0  0  0  0  0  0  0  0  0  0  0
    0.7214   -0.0908    0.1692 H   0  0  0  0  0  0  0  0  0  0  0  0
   -0.0690   -1.4425   -0.7633 H   0  0  0  0  0  0  0  0  0  0  0  0
  1  5  1  0  0  0  0
  2  1  1  0  0  0  0
  2  8  1  0  0  0  0
  3  1  1  0  0  0  0
  4  1  1  0  0  0  0
  6  2  1  0  0  0  0
  6  9  1  0  0  0  0
  6 10  1  0  0  0  0
  7  2  1  0  0  0  0
  9 13  1  0  0  0  0
  9 12  1  0  0  0  0
 11  6  1  0  0  0  0
 14  9  1  0  0  0  0
M  END
$$$$
