14
butane_opt
C  -3.950009   0.263409  -0.036326
C  -2.694048  -0.631959   0.121922
H  -4.839517  -0.277904  -0.179723
H  -3.931979   0.796361  -0.944844
H  -4.174901   1.000203   0.835083
C  -1.405359   0.191147   0.038846
H  -2.785639  -1.194698  -0.652604
H  -2.738315  -1.318293   1.055603
C  -0.139656  -0.696821  -0.026132
H  -1.361447   0.955592   0.965996
H  -1.429038   0.735160  -0.751394
H  -0.060690  -1.228582   0.808363
H   0.722550  -0.106054   0.025357
H  -0.147533  -1.352507  -0.904588
