butane_opt
 OpenBabel08242015413D

 14 13  0  0  0  0  0  0  0  0999 V2000
   -3.9564    0.2883    0.0484 C   0  0  0  0  0  0  0  0  0  0  0  0
   -2.6994   -0.6519    0.0249 C   0  0  0  0  0  0  0  0  0  0  0  0
   -4.8752   -0.2902    0.0875 H   0  0  0  0  0  0  0  0  0  0  0  0
   -4.1249    0.9577   -0.8580 H   0  0  0  0  0  0  0  0  0  0  0  0
   -3.9799    0.9071    0.9172 H   0  0  0  0  0  0  0  0  0  0  0  0
   -1.4128    0.1649   -0.0300 C   0  0  0  0  0  0  0  0  0  0  0  0
   -2.7521   -1.3666   -0.8754 H   0  0  0  0  0  0  0  0  0  0  0  0
   -2.6625   -1.2002    0.8888 H   0  0  0  0  0  0  0  0  0  0  0  0
   -0.1354   -0.6785    0.0550 C   0  0  0  0  0  0  0  0  0  0  0  0
   -1.3437    0.7856    0.7797 H   0  0  0  0  0  0  0  0  0  0  0  0
   -1.3436    0.9012   -1.0255 H   0  0  0  0  0  0  0  0  0  0  0  0
   -0.3002   -1.1882    0.9140 H   0  0  0  0  0  0  0  0  0  0  0  0
    0.8208    0.0136    0.2908 H   0  0  0  0  0  0  0  0  0  0  0  0
   -0.0177   -1.4695   -0.8785 H   0  0  0  0  0  0  0  0  0  0  0  0
  1  3  1  0  0  0  0
  1  5  1  0  0  0  0
  2  1  1  0  0  0  0
  2  8  1  0  0  0  0
  4  1  1  0  0  0  0
  6  2  1  0  0  0  0
  6  9  1  0  0  0  0
  6 10  1  0  0  0  0
  7  2  1  0  0  0  0
  9 13  1  0  0  0  0
  9 12  1  0  0  0  0
 11  6  1  0  0  0  0
 14  9  1  0  0  0  0
M  END
$$$$
