butane_opt
 OpenBabel08242015413D

 14 13  0  0  0  0  0  0  0  0999 V2000
   -3.9883    0.2941    0.0428 C   0  0  0  0  0  0  0  0  0  0  0  0
   -2.6732   -0.6459   -0.0074 C   0  0  0  0  0  0  0  0  0  0  0  0
   -4.8489   -0.2990    0.0643 H   0  0  0  0  0  0  0  0  0  0  0  0
   -3.9979    0.7859   -0.7434 H   0  0  0  0  0  0  0  0  0  0  0  0
   -4.0294    1.0009    0.9734 H   0  0  0  0  0  0  0  0  0  0  0  0
   -1.3868    0.1677   -0.0098 C   0  0  0  0  0  0  0  0  0  0  0  0
   -2.6868   -1.4233   -0.9729 H   0  0  0  0  0  0  0  0  0  0  0  0
   -2.7277   -1.2041    0.8479 H   0  0  0  0  0  0  0  0  0  0  0  0
   -0.1645   -0.6771    0.0623 C   0  0  0  0  0  0  0  0  0  0  0  0
   -1.3588    0.8768    0.8708 H   0  0  0  0  0  0  0  0  0  0  0  0
   -1.3715    0.7854   -0.8824 H   0  0  0  0  0  0  0  0  0  0  0  0
   -0.0711   -1.5408    1.1118 H   0  0  0  0  0  0  0  0  0  0  0  0
    0.8078   -0.0260   -0.2302 H   0  0  0  0  0  0  0  0  0  0  0  0
   -0.2010   -1.0699   -0.6067 H   0  0  0  0  0  0  0  0  0  0  0  0
  1  3  1  0  0  0  0
  1  5  1  0  0  0  0
  2  1  1  0  0  0  0
  2  8  1  0  0  0  0
  4  1  1  0  0  0  0
  6  2  1  0  0  0  0
  6  9  1  0  0  0  0
  6 10  1  0  0  0  0
  7  2  1  0  0  0  0
  9 12  1  0  0  0  0
 11  6  1  0  0  0  0
 13  9  1  0  0  0  0
 14  9  1  0  0  0  0
M  END
$$$$
