butane_opt
 OpenBabel08242015413D

 14 13  0  0  0  0  0  0  0  0999 V2000
   -3.9500    0.2634   -0.0363 C   0  0  0  0  0  0  0  0  0  0  0  0
   -2.6940   -0.6320    0.1219 C   0  0  0  0  0  0  0  0  0  0  0  0
   -4.8395   -0.2779   -0.1797 H   0  0  0  0  0  0  0  0  0  0  0  0
   -3.9320    0.7964   -0.9448 H   0  0  0  0  0  0  0  0  0  0  0  0
   -4.1749    1.0002    0.8351 H   0  0  0  0  0  0  0  0  0  0  0  0
   -1.4054    0.1911    0.0388 C   0  0  0  0  0  0  0  0  0  0  0  0
   -2.7856   -1.1947   -0.6526 H   0  0  0  0  0  0  0  0  0  0  0  0
   -2.7383   -1.3183    1.0556 H   0  0  0  0  0  0  0  0  0  0  0  0
   -0.1397   -0.6968   -0.0261 C   0  0  0  0  0  0  0  0  0  0  0  0
   -1.3614    0.9556    0.9660 H   0  0  0  0  0  0  0  0  0  0  0  0
   -1.4290    0.7352   -0.7514 H   0  0  0  0  0  0  0  0  0  0  0  0
   -0.0607   -1.2286    0.8084 H   0  0  0  0  0  0  0  0  0  0  0  0
    0.7226   -0.1061    0.0254 H   0  0  0  0  0  0  0  0  0  0  0  0
   -0.1475   -1.3525   -0.9046 H   0  0  0  0  0  0  0  0  0  0  0  0
  1  2  1  0  0  0  0
  1  5  1  0  0  0  0
  2  8  1  0  0  0  0
  3  1  1  0  0  0  0
  4  1  1  0  0  0  0
  6  2  1  0  0  0  0
  6 10  1  0  0  0  0
  7  2  1  0  0  0  0
  9 13  1  0  0  0  0
  9  6  1  0  0  0  0
  9 12  1  0  0  0  0
 11  6  1  0  0  0  0
 14  9  1  0  0  0  0
M  END
$$$$
