14
butane_opt
C  -3.988323   0.294065   0.042783
C  -2.673152  -0.645939  -0.007411
H  -4.848937  -0.298967   0.064269
H  -3.997926   0.785851  -0.743404
H  -4.029356   1.000937   0.973356
C  -1.386816   0.167660  -0.009810
H  -2.686785  -1.423294  -0.972914
H  -2.727670  -1.204117   0.847854
C  -0.164544  -0.677125   0.062270
H  -1.358804   0.876775   0.870789
H  -1.371470   0.785433  -0.882394
H  -0.071058  -1.540756   1.111811
H   0.807846  -0.026016  -0.230161
H  -0.200953  -1.069861  -0.606749
