14
butane_opt
C  -3.932573   0.282753  -0.015084
C  -2.682556  -0.645765   0.092928
H  -4.847619  -0.309261   0.065315
H  -3.935769   1.059287  -0.976562
H  -4.036382   0.838805   0.748705
C  -1.401844   0.163668   0.014415
H  -2.675731  -1.228328  -0.688781
H  -2.671561  -1.313948   1.080435
C  -0.179824  -0.670702  -0.003618
H  -1.428148   0.906664   0.917023
H  -1.447623   0.677935  -0.776003
H  -0.296416  -1.062237   0.749242
H   0.764805  -0.016190   0.241127
H  -0.093821  -1.587541  -1.031600
