14
butane_opt
C  -3.907662   0.255950   0.059716
C  -2.718013  -0.597216   0.007894
H  -4.861083  -0.382386   0.037414
H  -3.998579   0.786602  -0.745723
H  -3.840503   0.934842   0.948675
C  -1.426611   0.221694  -0.060113
H  -2.854452  -1.245573  -0.862673
H  -2.681444  -1.294969   0.925351
C  -0.156196  -0.721537   0.070436
H  -1.419681   0.818927   0.761350
H  -1.392980   0.839370  -0.971121
H  -0.300009  -1.238667   0.919006
H   0.772916  -0.156778   0.296832
H   0.058439  -1.443102  -0.817291
