14
butane_opt
C  -3.941145   0.263591   0.036526
C  -2.719532  -0.605201   0.018090
H  -4.861934  -0.339133   0.053755
H  -3.975037   0.808886  -0.811470
H  -3.913213   0.932181   0.934333
C  -1.402615   0.194619  -0.030469
H  -2.752854  -1.280000  -0.810148
H  -2.725482  -1.280332   0.955540
C  -0.148691  -0.705102   0.063276
H  -1.422584   0.884559   0.828358
H  -1.399629   0.850688  -0.935233
H  -0.168798  -1.261296   0.907921
H   0.782348  -0.106360   0.093775
H  -0.048762  -1.454178  -0.834434
