butane_opt
 OpenBabel08242015413D

 14 13  0  0  0  0  0  0  0  0999 V2000
   -3.9241    0.2497    0.0561 C   0  0  0  0  0  0  0  0  0  0  0  0
   -2.6959   -0.5980   -0.0255 C   0  0  0  0  0  0  0  0  0  0  0  0
   -4.8396   -0.3741    0.2356 H   0  0  0  0  0  0  0  0  0  0  0  0
   -4.1044    0.9095   -0.8287 H   0  0  0  0  0  0  0  0  0  0  0  0
   -3.7601    0.8220    0.8443 H   0  0  0  0  0  0  0  0  0  0  0  0
   -1.4118    0.2057   -0.0291 C   0  0  0  0  0  0  0  0  0  0  0  0
   -2.7575   -1.2785   -0.8376 H   0  0  0  0  0  0  0  0  0  0  0  0
   -2.7632   -1.1752    0.8419 H   0  0  0  0  0  0  0  0  0  0  0  0
   -0.1605   -0.7149    0.0779 C   0  0  0  0  0  0  0  0  0  0  0  0
   -1.4868    0.9275    0.8420 H   0  0  0  0  0  0  0  0  0  0  0  0
   -1.3502    0.8165   -0.9069 H   0  0  0  0  0  0  0  0  0  0  0  0
   -0.1635   -1.3188    1.0085 H   0  0  0  0  0  0  0  0  0  0  0  0
    0.6750   -0.1560    0.0361 H   0  0  0  0  0  0  0  0  0  0  0  0
   -0.1541   -1.3670   -0.7642 H   0  0  0  0  0  0  0  0  0  0  0  0
  1  3  1  0  0  0  0
  1  5  1  0  0  0  0
  2  1  1  0  0  0  0
  2  8  1  0  0  0  0
  4  1  1  0  0  0  0
  6  2  1  0  0  0  0
  6  9  1  0  0  0  0
  6 10  1  0  0  0  0
  7  2  1  0  0  0  0
  9 12  1  0  0  0  0
 11  6  1  0  0  0  0
 13  9  1  0  0  0  0
 14  9  1  0  0  0  0
M  END
$$$$
