14
butane_opt
C  -3.958985   0.253213   0.069893
C  -2.726039  -0.602996  -0.003147
H  -4.841370  -0.314708   0.005982
H  -3.928958   0.722220  -0.765333
H  -3.891023   0.974295   0.947190
C  -1.415068   0.207441  -0.055900
H  -2.729429  -1.249764  -0.812718
H  -2.651628  -1.244975   0.910005
C  -0.126250  -0.712074   0.082935
H  -1.506374   0.798194   0.747580
H  -1.355039   0.867799  -0.999148
H  -0.191176  -1.237978   0.952878
H   0.783108  -0.097172   0.158107
H  -0.007886  -1.437856  -0.836927
