14
butane_opt
C  -3.942229   0.279699  -0.053709
C  -2.673831  -0.646925   0.139943
H  -4.786562  -0.305275  -0.256758
H  -3.897215   0.852198  -0.934866
H  -4.083595   1.089309   0.897227
C  -1.393938   0.168605   0.056159
H  -2.683277  -1.242617  -0.694654
H  -2.708341  -1.365372   1.101827
C  -0.192406  -0.677422  -0.036099
H  -1.344240   0.924559   0.981091
H  -1.524482   0.732213  -0.777950
H  -0.182042  -1.273622   0.813654
H   0.791195  -0.003311  -0.039847
H  -0.186499  -1.352853  -0.926053
