14
butane_opt
C  -3.924119   0.249683   0.056121
C  -2.695855  -0.598026  -0.025496
H  -4.839625  -0.374145   0.235631
H  -4.104364   0.909470  -0.828746
H  -3.760084   0.821962   0.844281
C  -1.411843   0.205658  -0.029106
H  -2.757478  -1.278515  -0.837602
H  -2.763230  -1.175200   0.841916
C  -0.160503  -0.714921   0.077932
H  -1.486759   0.927492   0.842032
H  -1.350174   0.816520  -0.906895
H  -0.163490  -1.318832   1.008521
H   0.674967  -0.156019   0.036128
H  -0.154062  -1.367030  -0.764163
