butane_opt
 OpenBabel08242015413D

 14 13  0  0  0  0  0  0  0  0999 V2000
   -3.9422    0.2797   -0.0537 C   0  0  0  0  0  0  0  0  0  0  0  0
   -2.6738   -0.6469    0.1399 C   0  0  0  0  0  0  0  0  0  0  0  0
   -4.7866   -0.3053   -0.2568 H   0  0  0  0  0  0  0  0  0  0  0  0
   -3.8972    0.8522   -0.9349 H   0  0  0  0  0  0  0  0  0  0  0  0
   -4.0836    1.0893    0.8972 H   0  0  0  0  0  0  0  0  0  0  0  0
   -1.3939    0.1686    0.0562 C   0  0  0  0  0  0  0  0  0  0  0  0
   -2.6833   -1.2426   -0.6947 H   0  0  0  0  0  0  0  0  0  0  0  0
   -2.7083   -1.3654    1.1018 H   0  0  0  0  0  0  0  0  0  0  0  0
   -0.1924   -0.6774   -0.0361 C   0  0  0  0  0  0  0  0  0  0  0  0
   -1.3442    0.9246    0.9811 H   0  0  0  0  0  0  0  0  0  0  0  0
   -1.5245    0.7322   -0.7780 H   0  0  0  0  0  0  0  0  0  0  0  0
   -0.1820   -1.2736    0.8137 H   0  0  0  0  0  0  0  0  0  0  0  0
    0.7912   -0.0033   -0.0398 H   0  0  0  0  0  0  0  0  0  0  0  0
   -0.1865   -1.3529   -0.9261 H   0  0  0  0  0  0  0  0  0  0  0  0
  1  2  1  0  0  0  0
  1  5  1  0  0  0  0
  2  8  1  0  0  0  0
  3  1  1  0  0  0  0
  4  1  1  0  0  0  0
  6  2  1  0  0  0  0
  6 10  1  0  0  0  0
  7  2  1  0  0  0  0
  9  6  1  0  0  0  0
  9 12  1  0  0  0  0
 11  6  1  0  0  0  0
 13  9  1  0  0  0  0
 14  9  1  0  0  0  0
M  END
$$$$
