14
butane_opt
C  -3.964349   0.269302  -0.012001
C  -2.695600  -0.625332   0.063322
H  -4.846838  -0.283237   0.103328
H  -3.989624   0.957343  -0.924353
H  -3.983040   0.884100   0.811306
C  -1.391472   0.178405   0.024053
H  -2.691278  -1.255314  -0.732278
H  -2.715863  -1.327324   1.027045
C  -0.153176  -0.687697   0.015882
H  -1.381928   0.877583   0.881010
H  -1.435845   0.764452  -0.815833
H  -0.158923  -1.147057   0.799668
H   0.780174  -0.066132   0.110486
H  -0.148992  -1.486985  -0.935576
