14
butane_opt
C  -3.941731   0.292114   0.045925
C  -2.676135  -0.641391   0.012014
H  -4.833432  -0.314936   0.098724
H  -3.985390   0.807354  -0.803716
H  -3.910955   0.916093   0.900221
C  -1.410401   0.179125  -0.046508
H  -2.746363  -1.308984  -0.786379
H  -2.664827  -1.327215   0.954736
C  -0.190928  -0.678812   0.073167
H  -1.380172   0.845386   0.795282
H  -1.387180   0.840964  -0.972224
H  -0.186472  -1.192947   0.856210
H   0.739478  -0.042426   0.259900
H  -0.063217  -1.497055  -0.883284
