14
butane_opt
C  -3.938608   0.278756  -0.026525
C  -2.702735  -0.622658   0.109924
H  -4.841810  -0.337391  -0.301436
H  -3.784528   0.801602  -0.942218
H  -4.052703   1.075452   0.885561
C  -1.397514   0.164061   0.062470
H  -2.661319  -1.250845  -0.669557
H  -2.777459  -1.347142   1.091240
C  -0.168970  -0.689586  -0.020289
H  -1.362482   0.844913   0.901792
H  -1.503345   0.854293  -0.853931
H  -0.087607  -1.234089   0.833394
H   0.807536  -0.045093  -0.063741
H  -0.278598  -1.393066  -0.940837
