butane_opt
 OpenBabel08242015413D

 14 13  0  0  0  0  0  0  0  0999 V2000
   -3.9341    0.2501    0.0339 C   0  0  0  0  0  0  0  0  0  0  0  0
   -2.7098   -0.6065    0.0338 C   0  0  0  0  0  0  0  0  0  0  0  0
   -4.8586   -0.3818    0.0927 H   0  0  0  0  0  0  0  0  0  0  0  0
   -4.0373    0.8528   -0.8928 H   0  0  0  0  0  0  0  0  0  0  0  0
   -3.8726    0.9178    0.9381 H   0  0  0  0  0  0  0  0  0  0  0  0
   -1.4003    0.2283   -0.0292 C   0  0  0  0  0  0  0  0  0  0  0  0
   -2.7596   -1.2671   -0.8328 H   0  0  0  0  0  0  0  0  0  0  0  0
   -2.7841   -1.2257    0.9340 H   0  0  0  0  0  0  0  0  0  0  0  0
   -0.1571   -0.7207    0.0646 C   0  0  0  0  0  0  0  0  0  0  0  0
   -1.4278    0.7575    0.7300 H   0  0  0  0  0  0  0  0  0  0  0  0
   -1.4832    0.9159   -0.9253 H   0  0  0  0  0  0  0  0  0  0  0  0
   -0.1369   -1.1792    0.8136 H   0  0  0  0  0  0  0  0  0  0  0  0
    0.7606   -0.1096    0.2566 H   0  0  0  0  0  0  0  0  0  0  0  0
   -0.0037   -1.5657   -0.9198 H   0  0  0  0  0  0  0  0  0  0  0  0
  1  3  1  0  0  0  0
  1  5  1  0  0  0  0
  2  1  1  0  0  0  0
  2  8  1  0  0  0  0
  4  1  1  0  0  0  0
  6  2  1  0  0  0  0
  6  9  1  0  0  0  0
  6 10  1  0  0  0  0
  7  2  1  0  0  0  0
  9 13  1  0  0  0  0
  9 12  1  0  0  0  0
 11  6  1  0  0  0  0
 14  9  1  0  0  0  0
M  END
$$$$
