butane_opt
 OpenBabel08242015413D

 14 13  0  0  0  0  0  0  0  0999 V2000
   -3.9606    0.2750   -0.0031 C   0  0  0  0  0  0  0  0  0  0  0  0
   -2.7069   -0.6283    0.0514 C   0  0  0  0  0  0  0  0  0  0  0  0
   -4.8415   -0.3086    0.0649 H   0  0  0  0  0  0  0  0  0  0  0  0
   -3.9569    0.9711   -0.9638 H   0  0  0  0  0  0  0  0  0  0  0  0
   -3.9981    0.8643    0.8002 H   0  0  0  0  0  0  0  0  0  0  0  0
   -1.4005    0.1745    0.0485 C   0  0  0  0  0  0  0  0  0  0  0  0
   -2.6637   -1.2957   -0.7836 H   0  0  0  0  0  0  0  0  0  0  0  0
   -2.7114   -1.2876    0.9631 H   0  0  0  0  0  0  0  0  0  0  0  0
   -0.1499   -0.6878    0.0042 C   0  0  0  0  0  0  0  0  0  0  0  0
   -1.3627    0.9427    0.9692 H   0  0  0  0  0  0  0  0  0  0  0  0
   -1.4149    0.7434   -0.8268 H   0  0  0  0  0  0  0  0  0  0  0  0
   -0.1077   -1.3004    0.9264 H   0  0  0  0  0  0  0  0  0  0  0  0
    0.8023   -0.0676   -0.0972 H   0  0  0  0  0  0  0  0  0  0  0  0
   -0.1643   -1.3201   -0.8328 H   0  0  0  0  0  0  0  0  0  0  0  0
  1  2  1  0  0  0  0
  1  3  1  0  0  0  0
  1  5  1  0  0  0  0
  2  8  1  0  0  0  0
  4  1  1  0  0  0  0
  6  2  1  0  0  0  0
  6 10  1  0  0  0  0
  7  2  1  0  0  0  0
  9  6  1  0  0  0  0
  9 12  1  0  0  0  0
 11  6  1  0  0  0  0
 13  9  1  0  0  0  0
 14  9  1  0  0  0  0
M  END
$$$$
