14
butane_opt
C  -3.926617   0.253674  -0.046477
C  -2.704556  -0.616765   0.088557
H  -4.798110  -0.338920   0.097076
H  -3.896231   0.919681  -1.007825
H  -3.940340   0.838528   0.755302
C  -1.422238   0.210735   0.097218
H  -2.665837  -1.276763  -0.761616
H  -2.806943  -1.204071   0.952609
C  -0.158881  -0.702876  -0.022817
H  -1.422060   0.915826   0.949549
H  -1.491640   0.802213  -0.738662
H   0.038166  -1.398083   0.908051
H   0.748820  -0.124270  -0.179922
H  -0.252744  -1.336924  -0.922843
