14
butane_opt
C  -3.921713   0.254512   0.049697
C  -2.706688  -0.609506  -0.020455
H  -4.878820  -0.386892   0.345281
H  -4.032329   0.960814  -0.901060
H  -3.786280   0.809716   0.849291
C  -1.422480   0.207425  -0.016003
H  -2.702027  -1.344489  -0.906875
H  -2.653975  -1.151424   0.802727
C  -0.156947  -0.701648   0.075342
H  -1.530526   0.864340   0.803890
H  -1.318975   0.860209  -0.865513
H  -0.143369  -1.360677   1.021163
H   0.685384  -0.120758   0.017398
H  -0.159352  -1.425269  -0.804985
