14
butane_opt
C  -3.945807   0.256893  -0.013044
C  -2.714865  -0.602057   0.094666
H  -4.860718  -0.395021   0.085932
H  -3.934366   0.959456  -1.011408
H  -3.986836   0.809125   0.761350
C  -1.389224   0.208366   0.024946
H  -2.723098  -1.275321  -0.753378
H  -2.821117  -1.243025   1.058300
C  -0.148955  -0.721871  -0.002765
H  -1.372456   0.909652   0.910452
H  -1.496052   0.863583  -0.866008
H  -0.207668  -1.084460   0.720505
H   0.769210  -0.094732   0.221685
H   0.003072  -1.622134  -0.964993
