14
butane_opt
C  -3.934141   0.250073   0.033861
C  -2.709838  -0.606542   0.033799
H  -4.858550  -0.381797   0.092672
H  -4.037283   0.852753  -0.892835
H  -3.872566   0.917776   0.938080
C  -1.400286   0.228292  -0.029174
H  -2.759567  -1.267142  -0.832824
H  -2.784086  -1.225657   0.934023
C  -0.157106  -0.720651   0.064567
H  -1.427809   0.757511   0.730025
H  -1.483176   0.915896  -0.925337
H  -0.136866  -1.179190   0.813557
H   0.760611  -0.109555   0.256603
H  -0.003656  -1.565748  -0.919768
