butane_opt
 OpenBabel08242015413D

 14 13  0  0  0  0  0  0  0  0999 V2000
   -3.9266    0.2537   -0.0465 C   0  0  0  0  0  0  0  0  0  0  0  0
   -2.7046   -0.6168    0.0886 C   0  0  0  0  0  0  0  0  0  0  0  0
   -4.7981   -0.3389    0.0971 H   0  0  0  0  0  0  0  0  0  0  0  0
   -3.8962    0.9197   -1.0078 H   0  0  0  0  0  0  0  0  0  0  0  0
   -3.9403    0.8385    0.7553 H   0  0  0  0  0  0  0  0  0  0  0  0
   -1.4222    0.2107    0.0972 C   0  0  0  0  0  0  0  0  0  0  0  0
   -2.6658   -1.2768   -0.7616 H   0  0  0  0  0  0  0  0  0  0  0  0
   -2.8069   -1.2041    0.9526 H   0  0  0  0  0  0  0  0  0  0  0  0
   -0.1589   -0.7029   -0.0228 C   0  0  0  0  0  0  0  0  0  0  0  0
   -1.4221    0.9158    0.9495 H   0  0  0  0  0  0  0  0  0  0  0  0
   -1.4916    0.8022   -0.7387 H   0  0  0  0  0  0  0  0  0  0  0  0
    0.0382   -1.3981    0.9081 H   0  0  0  0  0  0  0  0  0  0  0  0
    0.7488   -0.1243   -0.1799 H   0  0  0  0  0  0  0  0  0  0  0  0
   -0.2527   -1.3369   -0.9228 H   0  0  0  0  0  0  0  0  0  0  0  0
  1  2  1  0  0  0  0
  1  3  1  0  0  0  0
  1  5  1  0  0  0  0
  2  6  1  0  0  0  0
  2  8  1  0  0  0  0
  4  1  1  0  0  0  0
  6 10  1  0  0  0  0
  7  2  1  0  0  0  0
  9  6  1  0  0  0  0
  9 12  1  0  0  0  0
 11  6  1  0  0  0  0
 13  9  1  0  0  0  0
 14  9  1  0  0  0  0
M  END
$$$$
