butane_opt
 OpenBabel08242015413D

 14 13  0  0  0  0  0  0  0  0999 V2000
   -3.9514    0.2479    0.0508 C   0  0  0  0  0  0  0  0  0  0  0  0
   -2.7128   -0.6058    0.0105 C   0  0  0  0  0  0  0  0  0  0  0  0
   -4.8315   -0.2918   -0.1393 H   0  0  0  0  0  0  0  0  0  0  0  0
   -3.9327    0.7128   -0.7587 H   0  0  0  0  0  0  0  0  0  0  0  0
   -4.0172    1.1632    1.0774 H   0  0  0  0  0  0  0  0  0  0  0  0
   -1.3994    0.1928   -0.0339 C   0  0  0  0  0  0  0  0  0  0  0  0
   -2.7665   -1.1940   -0.7977 H   0  0  0  0  0  0  0  0  0  0  0  0
   -2.7147   -1.2698    0.9029 H   0  0  0  0  0  0  0  0  0  0  0  0
   -0.1471   -0.7045    0.0627 C   0  0  0  0  0  0  0  0  0  0  0  0
   -1.4505    0.8087    0.8110 H   0  0  0  0  0  0  0  0  0  0  0  0
   -1.2936    0.8153   -0.9556 H   0  0  0  0  0  0  0  0  0  0  0  0
   -0.1788   -1.3676    1.0063 H   0  0  0  0  0  0  0  0  0  0  0  0
    0.7925   -0.1206   -0.0603 H   0  0  0  0  0  0  0  0  0  0  0  0
   -0.0971   -1.2880   -0.7145 H   0  0  0  0  0  0  0  0  0  0  0  0
  1  5  1  0  0  0  0
  2  1  1  0  0  0  0
  2  8  1  0  0  0  0
  3  1  1  0  0  0  0
  4  1  1  0  0  0  0
  6  2  1  0  0  0  0
  6  9  1  0  0  0  0
  6 10  1  0  0  0  0
  7  2  1  0  0  0  0
  9 12  1  0  0  0  0
 11  6  1  0  0  0  0
 13  9  1  0  0  0  0
 14  9  1  0  0  0  0
M  END
$$$$
