butane_opt
 OpenBabel08242015413D

 14 13  0  0  0  0  0  0  0  0999 V2000
   -3.9437    0.2779    0.0524 C   0  0  0  0  0  0  0  0  0  0  0  0
   -2.6811   -0.6293    0.0147 C   0  0  0  0  0  0  0  0  0  0  0  0
   -4.7811   -0.2519   -0.1916 H   0  0  0  0  0  0  0  0  0  0  0  0
   -3.9297    0.6768   -0.6434 H   0  0  0  0  0  0  0  0  0  0  0  0
   -4.0583    1.1853    1.0696 H   0  0  0  0  0  0  0  0  0  0  0  0
   -1.4150    0.1549   -0.0492 C   0  0  0  0  0  0  0  0  0  0  0  0
   -2.7000   -1.3637   -0.9056 H   0  0  0  0  0  0  0  0  0  0  0  0
   -2.6676   -1.2904    0.9457 H   0  0  0  0  0  0  0  0  0  0  0  0
   -0.1819   -0.6740    0.0865 C   0  0  0  0  0  0  0  0  0  0  0  0
   -1.4200    0.7440    0.7595 H   0  0  0  0  0  0  0  0  0  0  0  0
   -1.2967    0.8542   -0.9758 H   0  0  0  0  0  0  0  0  0  0  0  0
   -0.1188   -1.3237    0.9980 H   0  0  0  0  0  0  0  0  0  0  0  0
    0.7630   -0.0099   -0.1258 H   0  0  0  0  0  0  0  0  0  0  0  0
   -0.1681   -1.2349   -0.7229 H   0  0  0  0  0  0  0  0  0  0  0  0
  1  5  1  0  0  0  0
  2  1  1  0  0  0  0
  2  8  1  0  0  0  0
  3  1  1  0  0  0  0
  4  1  1  0  0  0  0
  6  2  1  0  0  0  0
  6  9  1  0  0  0  0
  6 10  1  0  0  0  0
  7  2  1  0  0  0  0
  9 12  1  0  0  0  0
 11  6  1  0  0  0  0
 13  9  1  0  0  0  0
 14  9  1  0  0  0  0
M  END
$$$$
