14
butane_opt
C  -3.961257   0.258090  -0.009217
C  -2.709962  -0.601097   0.086508
H  -4.929884  -0.418501   0.007426
H  -3.889365   0.887750  -0.908457
H  -3.993789   0.907263   0.822404
C  -1.378264   0.215589   0.014292
H  -2.755248  -1.227783  -0.706372
H  -2.718912  -1.312001   1.012176
C  -0.157683  -0.716668   0.008636
H  -1.456843   0.928024   0.844908
H  -1.380338   0.748293  -0.835093
H  -0.155350  -1.192834   0.810115
H   0.744324  -0.116524   0.135286
H   0.000768  -1.554768  -0.972926
