14
butane_opt
C  -3.959686   0.277113   0.046780
C  -2.700797  -0.627885   0.019800
H  -4.855318  -0.312718  -0.132250
H  -3.955529   0.751872  -0.751981
H  -4.010525   1.058178   1.004276
C  -1.400691   0.170079  -0.031747
H  -2.751568  -1.293010  -0.830032
H  -2.689682  -1.250939   0.917438
C  -0.143421  -0.685011   0.058178
H  -1.343285   0.860479   0.815347
H  -1.395715   0.827532  -0.946288
H  -0.190415  -1.364403   1.000690
H   0.751789  -0.093478   0.002810
H  -0.128330  -1.271349  -0.738397
