14
butane_opt
C  -3.971978   0.279704  -0.031466
C  -2.704270  -0.635618   0.079695
H  -4.795378  -0.254758  -0.032265
H  -3.918242   0.964300  -1.033939
H  -4.132067   0.951433   0.826737
C  -1.370827   0.176052   0.087214
H  -2.732468  -1.354532  -0.805331
H  -2.636897  -1.297105   0.987843
C  -0.175113  -0.677495  -0.020144
H  -1.286611   0.845732   0.999792
H  -1.366311   0.707141  -0.736676
H  -0.000252  -1.404602   0.957862
H   0.765484  -0.061547  -0.274002
H  -0.264343  -1.247973  -0.834205
