14
butane_opt
C  -3.947830   0.281969   0.009071
C  -2.679742  -0.625377   0.087763
H  -4.942167  -0.343364  -0.068378
H  -3.914586   0.998177  -0.975085
H  -4.109439   0.913893   0.844977
C  -1.405217   0.143631   0.017096
H  -2.647956  -1.300933  -0.758050
H  -2.719652  -1.303003   0.971186
C  -0.168919  -0.667358   0.008868
H  -1.364130   0.820362   0.869533
H  -1.375359   0.803972  -0.913736
H  -0.205075  -1.114807   0.777045
H   0.772895  -0.051484   0.181774
H  -0.098505  -1.492150  -0.982156
