14
butane_opt
C  -3.942423   0.250605   0.044228
C  -2.710007  -0.602775   0.015303
H  -4.899871  -0.349543   0.069462
H  -3.997179   0.872409  -0.851725
H  -3.976151   0.924362   0.910992
C  -1.401024   0.212263  -0.027550
H  -2.755086  -1.289266  -0.809123
H  -2.704340  -1.253128   0.924884
C  -0.154085  -0.708003   0.053106
H  -1.373541   0.874071   0.818338
H  -1.349286   0.810782  -0.896957
H  -0.189723  -1.299848   0.953975
H   0.723109  -0.152388   0.117766
H   0.002164  -1.444388  -0.829315
