14
butane_opt
C  -3.950789   0.254186   0.055943
C  -2.694942  -0.594130  -0.007757
H  -4.929016  -0.441560  -0.102300
H  -3.938326   0.630351  -0.642280
H  -3.974692   1.095561   1.046231
C  -1.410722   0.209865  -0.035198
H  -2.755056  -1.305705  -0.898591
H  -2.738077  -1.233641   0.938028
C  -0.143590  -0.709056   0.084258
H  -1.397487   0.794006   0.730435
H  -1.440493   0.947671  -1.021723
H  -0.081236  -1.431532   1.020698
H   0.751136  -0.166247  -0.051688
H  -0.105882  -1.305402  -0.708474
