butane_opt
 OpenBabel08242015413D

 14 13  0  0  0  0  0  0  0  0999 V2000
   -3.9220    0.2711   -0.0256 C   0  0  0  0  0  0  0  0  0  0  0  0
   -2.6864   -0.6224    0.0857 C   0  0  0  0  0  0  0  0  0  0  0  0
   -4.8844   -0.3052    0.0779 H   0  0  0  0  0  0  0  0  0  0  0  0
   -4.0092    1.0133   -0.9874 H   0  0  0  0  0  0  0  0  0  0  0  0
   -3.9550    0.7546    0.7372 H   0  0  0  0  0  0  0  0  0  0  0  0
   -1.4338    0.1759    0.0643 C   0  0  0  0  0  0  0  0  0  0  0  0
   -2.5661   -1.2215   -0.7227 H   0  0  0  0  0  0  0  0  0  0  0  0
   -2.7806   -1.2987    1.0427 H   0  0  0  0  0  0  0  0  0  0  0  0
   -0.1752   -0.6792   -0.0169 C   0  0  0  0  0  0  0  0  0  0  0  0
   -1.3408    0.8386    0.9085 H   0  0  0  0  0  0  0  0  0  0  0  0
   -1.3759    0.7629   -0.8338 H   0  0  0  0  0  0  0  0  0  0  0  0
   -0.1428   -1.1498    0.7790 H   0  0  0  0  0  0  0  0  0  0  0  0
    0.7677   -0.0495    0.1351 H   0  0  0  0  0  0  0  0  0  0  0  0
   -0.1331   -1.5637   -1.0168 H   0  0  0  0  0  0  0  0  0  0  0  0
  1  3  1  0  0  0  0
  1  2  1  0  0  0  0
  1  5  1  0  0  0  0
  2  8  1  0  0  0  0
  4  1  1  0  0  0  0
  6  2  1  0  0  0  0
  6 10  1  0  0  0  0
  7  2  1  0  0  0  0
  9  6  1  0  0  0  0
  9 13  1  0  0  0  0
  9 12  1  0  0  0  0
 11  6  1  0  0  0  0
 14  9  1  0  0  0  0
M  END
$$$$
