butane_opt
 OpenBabel08242015413D

 14 13  0  0  0  0  0  0  0  0999 V2000
   -3.9365    0.2611    0.0140 C   0  0  0  0  0  0  0  0  0  0  0  0
   -2.7184   -0.6039    0.0499 C   0  0  0  0  0  0  0  0  0  0  0  0
   -4.8902   -0.3711    0.0789 H   0  0  0  0  0  0  0  0  0  0  0  0
   -3.9348    0.8835   -0.9065 H   0  0  0  0  0  0  0  0  0  0  0  0
   -3.9734    0.8589    0.8243 H   0  0  0  0  0  0  0  0  0  0  0  0
   -1.4059    0.2066    0.0080 C   0  0  0  0  0  0  0  0  0  0  0  0
   -2.6999   -1.2621   -0.7786 H   0  0  0  0  0  0  0  0  0  0  0  0
   -2.7238   -1.2717    0.9638 H   0  0  0  0  0  0  0  0  0  0  0  0
   -0.1509   -0.7088    0.0266 C   0  0  0  0  0  0  0  0  0  0  0  0
   -1.4103    0.8405    0.8668 H   0  0  0  0  0  0  0  0  0  0  0  0
   -1.3641    0.8225   -0.8753 H   0  0  0  0  0  0  0  0  0  0  0  0
   -0.1366   -1.2067    0.8431 H   0  0  0  0  0  0  0  0  0  0  0  0
    0.7469   -0.1458    0.1252 H   0  0  0  0  0  0  0  0  0  0  0  0
   -0.0896   -1.4833   -0.8987 H   0  0  0  0  0  0  0  0  0  0  0  0
  1  2  1  0  0  0  0
  1  3  1  0  0  0  0
  1  5  1  0  0  0  0
  2  8  1  0  0  0  0
  4  1  1  0  0  0  0
  6  9  1  0  0  0  0
  6  2  1  0  0  0  0
  6 10  1  0  0  0  0
  7  2  1  0  0  0  0
  9 13  1  0  0  0  0
  9 12  1  0  0  0  0
 11  6  1  0  0  0  0
 14  9  1  0  0  0  0
M  END
$$$$
