14
butane_opt
C  -3.942203   0.290933   0.069096
C  -2.690456  -0.624132  -0.025026
H  -4.861071  -0.303806   0.187845
H  -3.977063   0.855273  -0.838521
H  -3.931932   0.925391   0.910604
C  -1.397311   0.150113  -0.032701
H  -2.745306  -1.344868  -0.934029
H  -2.652620  -1.219808   0.870660
C  -0.168873  -0.673941   0.070089
H  -1.455734   0.826006   0.798184
H  -1.310231   0.736114  -0.901178
H  -0.275265  -1.370165   1.056445
H   0.728336  -0.062376   0.047736
H  -0.159443  -1.224982  -0.724144
