14
butane_opt
C  -3.933986   0.285615   0.058398
C  -2.693384  -0.640445   0.015425
H  -4.755977  -0.217903  -0.178111
H  -3.895483   0.641909  -0.683814
H  -4.045142   1.190772   1.065166
C  -1.400867   0.162878  -0.063055
H  -2.848177  -1.335568  -0.823532
H  -2.636884  -1.258018   0.903431
C  -0.180980  -0.670319   0.076256
H  -1.420323   0.756603   0.728622
H  -1.347811   0.808832  -0.957949
H  -0.164598  -1.351493   1.046766
H   0.775625  -0.086904   0.056380
H  -0.196506  -1.255192  -0.732630
