butane_opt
 OpenBabel08242015413D

 14 13  0  0  0  0  0  0  0  0999 V2000
   -3.9484    0.2579   -0.0062 C   0  0  0  0  0  0  0  0  0  0  0  0
   -2.6968   -0.5977    0.0722 C   0  0  0  0  0  0  0  0  0  0  0  0
   -4.8206   -0.2939   -0.0055 H   0  0  0  0  0  0  0  0  0  0  0  0
   -3.9929    0.8033   -0.8882 H   0  0  0  0  0  0  0  0  0  0  0  0
   -4.0175    0.9724    0.9155 H   0  0  0  0  0  0  0  0  0  0  0  0
   -1.4058    0.1726    0.0120 C   0  0  0  0  0  0  0  0  0  0  0  0
   -2.6582   -1.2340   -0.7561 H   0  0  0  0  0  0  0  0  0  0  0  0
   -2.7471   -1.3440    1.0757 H   0  0  0  0  0  0  0  0  0  0  0  0
   -0.1616   -0.6968    0.0020 C   0  0  0  0  0  0  0  0  0  0  0  0
   -1.4307    0.8367    0.8769 H   0  0  0  0  0  0  0  0  0  0  0  0
   -1.3740    0.8468   -0.8769 H   0  0  0  0  0  0  0  0  0  0  0  0
   -0.2100   -1.1771    0.8265 H   0  0  0  0  0  0  0  0  0  0  0  0
    0.8281   -0.0248    0.1879 H   0  0  0  0  0  0  0  0  0  0  0  0
   -0.0497   -1.4797   -0.8877 H   0  0  0  0  0  0  0  0  0  0  0  0
  1  3  1  0  0  0  0
  1  2  1  0  0  0  0
  1  5  1  0  0  0  0
  2  8  1  0  0  0  0
  4  1  1  0  0  0  0
  6  2  1  0  0  0  0
  6 10  1  0  0  0  0
  7  2  1  0  0  0  0
  9  6  1  0  0  0  0
  9 13  1  0  0  0  0
  9 12  1  0  0  0  0
 11  6  1  0  0  0  0
 14  9  1  0  0  0  0
M  END
$$$$
