butane_opt
 OpenBabel08242015413D

 14 13  0  0  0  0  0  0  0  0999 V2000
   -3.9508    0.2542    0.0559 C   0  0  0  0  0  0  0  0  0  0  0  0
   -2.6949   -0.5941   -0.0078 C   0  0  0  0  0  0  0  0  0  0  0  0
   -4.9290   -0.4416   -0.1023 H   0  0  0  0  0  0  0  0  0  0  0  0
   -3.9383    0.6304   -0.6423 H   0  0  0  0  0  0  0  0  0  0  0  0
   -3.9747    1.0956    1.0462 H   0  0  0  0  0  0  0  0  0  0  0  0
   -1.4107    0.2099   -0.0352 C   0  0  0  0  0  0  0  0  0  0  0  0
   -2.7551   -1.3057   -0.8986 H   0  0  0  0  0  0  0  0  0  0  0  0
   -2.7381   -1.2336    0.9380 H   0  0  0  0  0  0  0  0  0  0  0  0
   -0.1436   -0.7091    0.0843 C   0  0  0  0  0  0  0  0  0  0  0  0
   -1.3975    0.7940    0.7304 H   0  0  0  0  0  0  0  0  0  0  0  0
   -1.4405    0.9477   -1.0217 H   0  0  0  0  0  0  0  0  0  0  0  0
   -0.0812   -1.4315    1.0207 H   0  0  0  0  0  0  0  0  0  0  0  0
    0.7511   -0.1662   -0.0517 H   0  0  0  0  0  0  0  0  0  0  0  0
   -0.1059   -1.3054   -0.7085 H   0  0  0  0  0  0  0  0  0  0  0  0
  1  5  1  0  0  0  0
  2  1  1  0  0  0  0
  2  8  1  0  0  0  0
  3  1  1  0  0  0  0
  4  1  1  0  0  0  0
  6  2  1  0  0  0  0
  6  9  1  0  0  0  0
  6 10  1  0  0  0  0
  7  2  1  0  0  0  0
  9 12  1  0  0  0  0
 11  6  1  0  0  0  0
 13  9  1  0  0  0  0
 14  9  1  0  0  0  0
M  END
$$$$
