14
butane_opt
C  -3.921980   0.277187   0.064205
C  -2.707577  -0.607619   0.008669
H  -4.861742  -0.350115  -0.128538
H  -3.921292   0.707419  -0.738258
H  -4.058464   1.063585   1.016355
C  -1.404608   0.162553  -0.058335
H  -2.758145  -1.308405  -0.842822
H  -2.625175  -1.206100   0.837422
C  -0.169810  -0.684409   0.076094
H  -1.410224   0.804436   0.815073
H  -1.418137   0.787599  -0.923721
H  -0.141673  -1.422379   1.076177
H   0.806567  -0.039691  -0.016443
H  -0.194932  -1.273148  -0.716570
