butane_opt
 OpenBabel08242015413D

 14 13  0  0  0  0  0  0  0  0999 V2000
   -3.9422    0.2909    0.0691 C   0  0  0  0  0  0  0  0  0  0  0  0
   -2.6905   -0.6241   -0.0250 C   0  0  0  0  0  0  0  0  0  0  0  0
   -4.8611   -0.3038    0.1878 H   0  0  0  0  0  0  0  0  0  0  0  0
   -3.9771    0.8553   -0.8385 H   0  0  0  0  0  0  0  0  0  0  0  0
   -3.9319    0.9254    0.9106 H   0  0  0  0  0  0  0  0  0  0  0  0
   -1.3973    0.1501   -0.0327 C   0  0  0  0  0  0  0  0  0  0  0  0
   -2.7453   -1.3449   -0.9340 H   0  0  0  0  0  0  0  0  0  0  0  0
   -2.6526   -1.2198    0.8707 H   0  0  0  0  0  0  0  0  0  0  0  0
   -0.1689   -0.6739    0.0701 C   0  0  0  0  0  0  0  0  0  0  0  0
   -1.4557    0.8260    0.7982 H   0  0  0  0  0  0  0  0  0  0  0  0
   -1.3102    0.7361   -0.9012 H   0  0  0  0  0  0  0  0  0  0  0  0
   -0.2753   -1.3702    1.0564 H   0  0  0  0  0  0  0  0  0  0  0  0
    0.7283   -0.0624    0.0477 H   0  0  0  0  0  0  0  0  0  0  0  0
   -0.1594   -1.2250   -0.7241 H   0  0  0  0  0  0  0  0  0  0  0  0
  1  3  1  0  0  0  0
  1  5  1  0  0  0  0
  2  1  1  0  0  0  0
  2  8  1  0  0  0  0
  4  1  1  0  0  0  0
  6  2  1  0  0  0  0
  6  9  1  0  0  0  0
  6 10  1  0  0  0  0
  7  2  1  0  0  0  0
  9 12  1  0  0  0  0
 11  6  1  0  0  0  0
 13  9  1  0  0  0  0
 14  9  1  0  0  0  0
M  END
$$$$
