14
butane_opt
C  -3.952405   0.284083   0.030653
C  -2.677471  -0.641424  -0.002560
H  -4.829658  -0.245526   0.014467
H  -4.017113   0.775715  -0.785818
H  -3.908758   1.098893   1.024041
C  -1.400322   0.158460   0.004618
H  -2.673573  -1.354454  -0.836381
H  -2.741001  -1.259308   0.852705
C  -0.178350  -0.667881   0.057146
H  -1.403135   0.832653   0.831785
H  -1.343204   0.749248  -0.894925
H  -0.121717  -1.437763   1.082174
H   0.725117  -0.093091  -0.262133
H  -0.223183  -1.114527  -0.635799
