butane_opt
 OpenBabel08242015413D

 14 13  0  0  0  0  0  0  0  0999 V2000
   -3.9536    0.2883   -0.0030 C   0  0  0  0  0  0  0  0  0  0  0  0
   -2.7025   -0.6326    0.0639 C   0  0  0  0  0  0  0  0  0  0  0  0
   -4.8366   -0.2927   -0.0349 H   0  0  0  0  0  0  0  0  0  0  0  0
   -4.0426    0.9258   -0.9305 H   0  0  0  0  0  0  0  0  0  0  0  0
   -4.0452    0.8931    0.8543 H   0  0  0  0  0  0  0  0  0  0  0  0
   -1.3842    0.1647    0.0476 C   0  0  0  0  0  0  0  0  0  0  0  0
   -2.6145   -1.3820   -0.8791 H   0  0  0  0  0  0  0  0  0  0  0  0
   -2.7402   -1.1939    0.9079 H   0  0  0  0  0  0  0  0  0  0  0  0
   -0.1624   -0.6870    0.0077 C   0  0  0  0  0  0  0  0  0  0  0  0
   -1.3109    0.8474    0.9151 H   0  0  0  0  0  0  0  0  0  0  0  0
   -1.4102    0.7342   -0.7951 H   0  0  0  0  0  0  0  0  0  0  0  0
   -0.1040   -1.3631    0.9658 H   0  0  0  0  0  0  0  0  0  0  0  0
    0.8072   -0.0223   -0.2148 H   0  0  0  0  0  0  0  0  0  0  0  0
   -0.2875   -1.2016   -0.7337 H   0  0  0  0  0  0  0  0  0  0  0  0
  1  2  1  0  0  0  0
  1  5  1  0  0  0  0
  2  8  1  0  0  0  0
  3  1  1  0  0  0  0
  4  1  1  0  0  0  0
  6  2  1  0  0  0  0
  6 10  1  0  0  0  0
  7  2  1  0  0  0  0
  9  6  1  0  0  0  0
  9 12  1  0  0  0  0
 11  6  1  0  0  0  0
 13  9  1  0  0  0  0
 14  9  1  0  0  0  0
M  END
$$$$
