butane_opt
 OpenBabel08242015413D

 14 13  0  0  0  0  0  0  0  0999 V2000
   -3.9431    0.2395   -0.0434 C   0  0  0  0  0  0  0  0  0  0  0  0
   -2.7078   -0.5992    0.0934 C   0  0  0  0  0  0  0  0  0  0  0  0
   -4.8056   -0.3197   -0.0260 H   0  0  0  0  0  0  0  0  0  0  0  0
   -3.8899    0.8795   -0.9929 H   0  0  0  0  0  0  0  0  0  0  0  0
   -3.9867    0.8855    0.7709 H   0  0  0  0  0  0  0  0  0  0  0  0
   -1.4237    0.2308    0.1014 C   0  0  0  0  0  0  0  0  0  0  0  0
   -2.7357   -1.3020   -0.7945 H   0  0  0  0  0  0  0  0  0  0  0  0
   -2.7443   -1.2903    0.9853 H   0  0  0  0  0  0  0  0  0  0  0  0
   -0.1394   -0.7202   -0.0199 C   0  0  0  0  0  0  0  0  0  0  0  0
   -1.3857    0.9065    0.9408 H   0  0  0  0  0  0  0  0  0  0  0  0
   -1.4259    0.8090   -0.7648 H   0  0  0  0  0  0  0  0  0  0  0  0
    0.0243   -1.3396    0.8781 H   0  0  0  0  0  0  0  0  0  0  0  0
    0.7718   -0.1878   -0.2821 H   0  0  0  0  0  0  0  0  0  0  0  0
   -0.2678   -1.3109   -0.8560 H   0  0  0  0  0  0  0  0  0  0  0  0
  1  3  1  0  0  0  0
  1  2  1  0  0  0  0
  1  5  1  0  0  0  0
  2  6  1  0  0  0  0
  2  8  1  0  0  0  0
  4  1  1  0  0  0  0
  6 10  1  0  0  0  0
  7  2  1  0  0  0  0
  9  6  1  0  0  0  0
  9 12  1  0  0  0  0
 11  6  1  0  0  0  0
 13  9  1  0  0  0  0
 14  9  1  0  0  0  0
M  END
$$$$
