butane_opt
 OpenBabel08242015413D

 14 13  0  0  0  0  0  0  0  0999 V2000
   -3.9610    0.2844    0.0667 C   0  0  0  0  0  0  0  0  0  0  0  0
   -2.6890   -0.6438    0.0121 C   0  0  0  0  0  0  0  0  0  0  0  0
   -4.8455   -0.3142   -0.1920 H   0  0  0  0  0  0  0  0  0  0  0  0
   -3.9289    0.7055   -0.7159 H   0  0  0  0  0  0  0  0  0  0  0  0
   -4.0361    1.0713    1.0202 H   0  0  0  0  0  0  0  0  0  0  0  0
   -1.4065    0.1814   -0.0327 C   0  0  0  0  0  0  0  0  0  0  0  0
   -2.7324   -1.3692   -0.8749 H   0  0  0  0  0  0  0  0  0  0  0  0
   -2.6596   -1.2616    0.8828 H   0  0  0  0  0  0  0  0  0  0  0  0
   -0.1532   -0.6740    0.0699 C   0  0  0  0  0  0  0  0  0  0  0  0
   -1.4640    0.8236    0.7230 H   0  0  0  0  0  0  0  0  0  0  0  0
   -1.2694    0.9182   -1.0344 H   0  0  0  0  0  0  0  0  0  0  0  0
   -0.1478   -1.4141    1.0061 H   0  0  0  0  0  0  0  0  0  0  0  0
    0.7224   -0.1114   -0.0007 H   0  0  0  0  0  0  0  0  0  0  0  0
   -0.1510   -1.2994   -0.7496 H   0  0  0  0  0  0  0  0  0  0  0  0
  1  5  1  0  0  0  0
  2  1  1  0  0  0  0
  2  8  1  0  0  0  0
  3  1  1  0  0  0  0
  4  1  1  0  0  0  0
  6  2  1  0  0  0  0
  6  9  1  0  0  0  0
  6 10  1  0  0  0  0
  7  2  1  0  0  0  0
  9 12  1  0  0  0  0
 11  6  1  0  0  0  0
 13  9  1  0  0  0  0
 14  9  1  0  0  0  0
M  END
$$$$
