14
butane_opt
C  -3.948432   0.257872  -0.006244
C  -2.696849  -0.597678   0.072240
H  -4.820553  -0.293886  -0.005496
H  -3.992905   0.803327  -0.888173
H  -4.017540   0.972396   0.915541
C  -1.405777   0.172560   0.012031
H  -2.658212  -1.234040  -0.756102
H  -2.747114  -1.343977   1.075746
C  -0.161612  -0.696794   0.002049
H  -1.430742   0.836744   0.876910
H  -1.373971   0.846761  -0.876897
H  -0.210009  -1.177080   0.826477
H   0.828058  -0.024805   0.187949
H  -0.049669  -1.479687  -0.887749
