14
butane_opt
C  -3.943104   0.239514  -0.043414
C  -2.707836  -0.599229   0.093409
H  -4.805609  -0.319707  -0.025994
H  -3.889880   0.879489  -0.992871
H  -3.986719   0.885500   0.770853
C  -1.423721   0.230807   0.101352
H  -2.735676  -1.302033  -0.794544
H  -2.744298  -1.290322   0.985342
C  -0.139435  -0.720161  -0.019909
H  -1.385717   0.906477   0.940800
H  -1.425890   0.808975  -0.764821
H   0.024279  -1.339649   0.878067
H   0.771844  -0.187817  -0.282100
H  -0.267835  -1.310906  -0.855989
