14
butane_opt
C  -3.951594   0.259414  -0.017047
C  -2.730394  -0.591096   0.063619
H  -4.896259  -0.392280   0.294975
H  -3.970996   1.048636  -1.061867
H  -3.967268   0.640129   0.647184
C  -1.406527   0.200209   0.051949
H  -2.750911  -1.283299  -0.765152
H  -2.698345  -1.196525   0.917153
C  -0.134171  -0.710040   0.008152
H  -1.277261   0.919139   0.961569
H  -1.398232   0.770476  -0.768740
H  -0.016285  -1.181526   0.821865
H   0.739963  -0.177640   0.051057
H  -0.110677  -1.526323  -0.969030
