butane_opt
 OpenBabel08242015413D

 14 13  0  0  0  0  0  0  0  0999 V2000
   -3.9041    0.2371   -0.0378 C   0  0  0  0  0  0  0  0  0  0  0  0
   -2.7123   -0.5877    0.0597 C   0  0  0  0  0  0  0  0  0  0  0  0
   -4.8117   -0.3512    0.0481 H   0  0  0  0  0  0  0  0  0  0  0  0
   -3.9563    0.8838   -0.8975 H   0  0  0  0  0  0  0  0  0  0  0  0
   -3.9957    0.8776    0.7752 H   0  0  0  0  0  0  0  0  0  0  0  0
   -1.4165    0.2140    0.0821 C   0  0  0  0  0  0  0  0  0  0  0  0
   -2.6802   -1.1964   -0.7063 H   0  0  0  0  0  0  0  0  0  0  0  0
   -2.7807   -1.2494    0.9833 H   0  0  0  0  0  0  0  0  0  0  0  0
   -0.1722   -0.7165   -0.0132 C   0  0  0  0  0  0  0  0  0  0  0  0
   -1.3216    0.9425    1.0047 H   0  0  0  0  0  0  0  0  0  0  0  0
   -1.4916    0.7574   -0.7221 H   0  0  0  0  0  0  0  0  0  0  0  0
    0.0046   -1.4627    0.9427 H   0  0  0  0  0  0  0  0  0  0  0  0
    0.7446   -0.1328   -0.2357 H   0  0  0  0  0  0  0  0  0  0  0  0
   -0.2628   -1.3058   -0.8293 H   0  0  0  0  0  0  0  0  0  0  0  0
  1  3  1  0  0  0  0
  1  2  1  0  0  0  0
  1  5  1  0  0  0  0
  2  6  1  0  0  0  0
  2  8  1  0  0  0  0
  4  1  1  0  0  0  0
  6 10  1  0  0  0  0
  7  2  1  0  0  0  0
  9  6  1  0  0  0  0
  9 12  1  0  0  0  0
 11  6  1  0  0  0  0
 13  9  1  0  0  0  0
 14  9  1  0  0  0  0
M  END
$$$$
