14
butane_opt
C  -3.933547   0.269218  -0.019951
C  -2.692393  -0.600389   0.091341
H  -4.841966  -0.309267  -0.094488
H  -3.843491   0.939922  -1.004545
H  -4.107824   0.868765   0.784008
C  -1.386116   0.163920   0.073309
H  -2.695305  -1.360875  -0.791112
H  -2.777290  -1.240379   1.021412
C  -0.184960  -0.693089  -0.025346
H  -1.395325   0.873374   0.988807
H  -1.458792   0.757411  -0.804409
H  -0.034176  -1.325051   0.899437
H   0.760277  -0.032355  -0.140070
H  -0.273782  -1.301994  -0.851134
