butane_opt
 OpenBabel08242015413D

 14 13  0  0  0  0  0  0  0  0999 V2000
   -3.9385    0.2478    0.0749 C   0  0  0  0  0  0  0  0  0  0  0  0
   -2.7275   -0.6044   -0.0096 C   0  0  0  0  0  0  0  0  0  0  0  0
   -4.8142   -0.3415    0.1093 H   0  0  0  0  0  0  0  0  0  0  0  0
   -4.0448    0.7957   -0.8177 H   0  0  0  0  0  0  0  0  0  0  0  0
   -3.9169    0.9225    0.9624 H   0  0  0  0  0  0  0  0  0  0  0  0
   -1.4058    0.2363   -0.0634 C   0  0  0  0  0  0  0  0  0  0  0  0
   -2.7675   -1.2421   -0.8361 H   0  0  0  0  0  0  0  0  0  0  0  0
   -2.7655   -1.2492    0.8869 H   0  0  0  0  0  0  0  0  0  0  0  0
   -0.1465   -0.7267    0.0816 C   0  0  0  0  0  0  0  0  0  0  0  0
   -1.3892    0.8677    0.7544 H   0  0  0  0  0  0  0  0  0  0  0  0
   -1.3777    0.8346   -0.9983 H   0  0  0  0  0  0  0  0  0  0  0  0
   -0.2613   -1.2697    0.9607 H   0  0  0  0  0  0  0  0  0  0  0  0
    0.7829   -0.1225    0.2359 H   0  0  0  0  0  0  0  0  0  0  0  0
    0.1496   -1.4997   -0.8233 H   0  0  0  0  0  0  0  0  0  0  0  0
  1  3  1  0  0  0  0
  1  5  1  0  0  0  0
  2  1  1  0  0  0  0
  2  8  1  0  0  0  0
  4  1  1  0  0  0  0
  6  2  1  0  0  0  0
  6  9  1  0  0  0  0
  6 10  1  0  0  0  0
  7  2  1  0  0  0  0
  9 13  1  0  0  0  0
  9 12  1  0  0  0  0
 11  6  1  0  0  0  0
 14  9  1  0  0  0  0
M  END
$$$$
