14
butane_opt
C  -3.932771   0.251090  -0.008569
C  -2.705917  -0.598857   0.058310
H  -4.855494  -0.345174   0.202968
H  -3.993933   1.014506  -0.996977
H  -3.927728   0.800341   0.744426
C  -1.410570   0.185472   0.041028
H  -2.697524  -1.286834  -0.806859
H  -2.696868  -1.208240   0.933212
C  -0.153180  -0.704761   0.008691
H  -1.368106   0.917068   0.926706
H  -1.459559   0.777927  -0.794911
H  -0.163198  -1.236565   0.854579
H   0.751539  -0.112386   0.040348
H  -0.169091  -1.393593  -0.871556
