14
butane_opt
C  -3.947389   0.255231   0.089614
C  -2.710649  -0.601674  -0.019622
H  -4.918444  -0.455235   0.100503
H  -4.031170   0.893762  -0.825186
H  -3.849377   0.890767   0.935436
C  -1.408873   0.219358  -0.067688
H  -2.771586  -1.388964  -0.903441
H  -2.699102  -1.156908   0.806350
C  -0.138612  -0.711276   0.103195
H  -1.515743   0.824839   0.703880
H  -1.394131   0.857296  -0.983832
H  -0.135327  -1.318573   0.963538
H   0.747812  -0.138307   0.161184
H   0.011662  -1.420207  -0.793703
