14
butane_opt
C  -3.938538   0.247796   0.074885
C  -2.727458  -0.604423  -0.009634
H  -4.814221  -0.341470   0.109271
H  -4.044848   0.795713  -0.817680
H  -3.916948   0.922510   0.962380
C  -1.405809   0.236349  -0.063419
H  -2.767540  -1.242142  -0.836073
H  -2.765498  -1.249207   0.886875
C  -0.146537  -0.726697   0.081565
H  -1.389164   0.867732   0.754448
H  -1.377712   0.834572  -0.998329
H  -0.261334  -1.269746   0.960681
H   0.782942  -0.122508   0.235932
H   0.149634  -1.499675  -0.823290
