14
butane_opt
C  -3.973929   0.287997  -0.002022
C  -2.688220  -0.628370   0.066844
H  -4.869153  -0.270165  -0.133986
H  -3.834926   0.825336  -0.898580
H  -4.067576   0.959135   0.838814
C  -1.376478   0.153701   0.038271
H  -2.706151  -1.243449  -0.762738
H  -2.689088  -1.365635   1.055408
C  -0.171891  -0.678484   0.003512
H  -1.306580   0.934031   0.938009
H  -1.445012   0.744637  -0.827582
H  -0.156032  -1.295550   0.907005
H   0.744592  -0.027109  -0.109656
H  -0.181513  -1.348314  -0.845916
