14
butane_opt
C  -3.956465   0.281076   0.019434
C  -2.705837  -0.638134   0.029303
H  -4.832008  -0.268682   0.246288
H  -4.095567   0.967107  -0.935564
H  -3.977256   0.817438   0.771828
C  -1.393073   0.182937   0.008715
H  -2.756477  -1.272383  -0.829527
H  -2.707541  -1.307209   0.917809
C  -0.155461  -0.687670   0.023805
H  -1.269412   0.904393   0.870040
H  -1.348859   0.765857  -0.818856
H  -0.226626  -1.223495   0.924744
H   0.719500  -0.118525   0.188333
H   0.001471  -1.400431  -0.881547
