butane_opt
 OpenBabel08242015413D

 14 13  0  0  0  0  0  0  0  0999 V2000
   -3.9525    0.2819    0.0411 C   0  0  0  0  0  0  0  0  0  0  0  0
   -2.7069   -0.6588    0.0086 C   0  0  0  0  0  0  0  0  0  0  0  0
   -4.8735   -0.2721    0.2719 H   0  0  0  0  0  0  0  0  0  0  0  0
   -4.0809    1.0019   -0.9393 H   0  0  0  0  0  0  0  0  0  0  0  0
   -4.0003    0.8614    0.8129 H   0  0  0  0  0  0  0  0  0  0  0  0
   -1.3905    0.1842    0.0018 C   0  0  0  0  0  0  0  0  0  0  0  0
   -2.6828   -1.3994   -0.8934 H   0  0  0  0  0  0  0  0  0  0  0  0
   -2.7321   -1.1472    0.7459 H   0  0  0  0  0  0  0  0  0  0  0  0
   -0.1496   -0.6797    0.0546 C   0  0  0  0  0  0  0  0  0  0  0  0
   -1.3981    0.8693    0.8677 H   0  0  0  0  0  0  0  0  0  0  0  0
   -1.4187    0.8291   -0.8912 H   0  0  0  0  0  0  0  0  0  0  0  0
   -0.1097   -1.3509    0.9880 H   0  0  0  0  0  0  0  0  0  0  0  0
    0.7794   -0.0771   -0.0126 H   0  0  0  0  0  0  0  0  0  0  0  0
   -0.1229   -1.3100   -0.7724 H   0  0  0  0  0  0  0  0  0  0  0  0
  1  3  1  0  0  0  0
  1  5  1  0  0  0  0
  2  1  1  0  0  0  0
  2  8  1  0  0  0  0
  4  1  1  0  0  0  0
  6  2  1  0  0  0  0
  6  9  1  0  0  0  0
  6 10  1  0  0  0  0
  7  2  1  0  0  0  0
  9 12  1  0  0  0  0
 11  6  1  0  0  0  0
 13  9  1  0  0  0  0
 14  9  1  0  0  0  0
M  END
$$$$
