butane_opt
 OpenBabel08242015413D

 14 13  0  0  0  0  0  0  0  0999 V2000
   -3.9326    0.2782    0.0728 C   0  0  0  0  0  0  0  0  0  0  0  0
   -2.6892   -0.6267   -0.0083 C   0  0  0  0  0  0  0  0  0  0  0  0
   -4.7959   -0.2947    0.1031 H   0  0  0  0  0  0  0  0  0  0  0  0
   -3.9728    0.8285   -0.8151 H   0  0  0  0  0  0  0  0  0  0  0  0
   -3.8835    1.0080    1.0066 H   0  0  0  0  0  0  0  0  0  0  0  0
   -1.4075    0.1649   -0.0500 C   0  0  0  0  0  0  0  0  0  0  0  0
   -2.7282   -1.3496   -0.9247 H   0  0  0  0  0  0  0  0  0  0  0  0
   -2.7645   -1.2492    0.8469 H   0  0  0  0  0  0  0  0  0  0  0  0
   -0.1846   -0.6812    0.0916 C   0  0  0  0  0  0  0  0  0  0  0  0
   -1.4049    0.7402    0.7022 H   0  0  0  0  0  0  0  0  0  0  0  0
   -1.3301    0.9393   -1.0293 H   0  0  0  0  0  0  0  0  0  0  0  0
   -0.2530   -1.2007    0.9254 H   0  0  0  0  0  0  0  0  0  0  0  0
    0.7016   -0.1167    0.1558 H   0  0  0  0  0  0  0  0  0  0  0  0
   -0.0367   -1.3929   -0.7967 H   0  0  0  0  0  0  0  0  0  0  0  0
  1  3  1  0  0  0  0
  1  5  1  0  0  0  0
  2  1  1  0  0  0  0
  2  8  1  0  0  0  0
  4  1  1  0  0  0  0
  6  2  1  0  0  0  0
  6  9  1  0  0  0  0
  6 10  1  0  0  0  0
  7  2  1  0  0  0  0
  9 13  1  0  0  0  0
  9 12  1  0  0  0  0
 11  6  1  0  0  0  0
 14  9  1  0  0  0  0
M  END
$$$$
