14
butane_opt
C  -3.940881   0.268977  -0.041871
C  -2.689993  -0.607443   0.087803
H  -4.942796  -0.400891   0.078999
H  -3.880443   0.949782  -0.955233
H  -4.011639   0.802088   0.739776
C  -1.420502   0.186111   0.074052
H  -2.659899  -1.278175  -0.733354
H  -2.678962  -1.259590   0.957356
C  -0.159824  -0.694651  -0.024699
H  -1.378178   1.011174   1.017040
H  -1.395935   0.657334  -0.709398
H  -0.041023  -1.411156   0.951241
H   0.759826  -0.069602  -0.165784
H  -0.259019  -1.314171  -0.886855
