butane_opt
 OpenBabel08242015413D

 14 13  0  0  0  0  0  0  0  0999 V2000
   -3.9757    0.2423    0.0422 C   0  0  0  0  0  0  0  0  0  0  0  0
   -2.6924   -0.5910    0.0214 C   0  0  0  0  0  0  0  0  0  0  0  0
   -4.8986   -0.3761    0.0879 H   0  0  0  0  0  0  0  0  0  0  0  0
   -3.9449    0.7565   -0.7454 H   0  0  0  0  0  0  0  0  0  0  0  0
   -3.8479    0.9799    0.9621 H   0  0  0  0  0  0  0  0  0  0  0  0
   -1.4068    0.2197   -0.0476 C   0  0  0  0  0  0  0  0  0  0  0  0
   -2.7493   -1.3254   -0.8355 H   0  0  0  0  0  0  0  0  0  0  0  0
   -2.7507   -1.2140    0.9398 H   0  0  0  0  0  0  0  0  0  0  0  0
   -0.1382   -0.7160    0.0634 C   0  0  0  0  0  0  0  0  0  0  0  0
   -1.4828    0.8083    0.7034 H   0  0  0  0  0  0  0  0  0  0  0  0
   -1.3392    0.9173   -0.9695 H   0  0  0  0  0  0  0  0  0  0  0  0
   -0.1731   -1.2355    0.8996 H   0  0  0  0  0  0  0  0  0  0  0  0
    0.7289   -0.1919    0.2701 H   0  0  0  0  0  0  0  0  0  0  0  0
   -0.0009   -1.4629   -0.8226 H   0  0  0  0  0  0  0  0  0  0  0  0
  1  3  1  0  0  0  0
  1  5  1  0  0  0  0
  2  1  1  0  0  0  0
  2  8  1  0  0  0  0
  4  1  1  0  0  0  0
  6  2  1  0  0  0  0
  6  9  1  0  0  0  0
  6 10  1  0  0  0  0
  7  2  1  0  0  0  0
  9 13  1  0  0  0  0
  9 12  1  0  0  0  0
 11  6  1  0  0  0  0
 14  9  1  0  0  0  0
M  END
$$$$
