butane_opt
 OpenBabel08242015413D

 14 13  0  0  0  0  0  0  0  0999 V2000
   -3.9409    0.2690   -0.0419 C   0  0  0  0  0  0  0  0  0  0  0  0
   -2.6900   -0.6074    0.0878 C   0  0  0  0  0  0  0  0  0  0  0  0
   -4.9428   -0.4009    0.0790 H   0  0  0  0  0  0  0  0  0  0  0  0
   -3.8804    0.9498   -0.9552 H   0  0  0  0  0  0  0  0  0  0  0  0
   -4.0116    0.8021    0.7398 H   0  0  0  0  0  0  0  0  0  0  0  0
   -1.4205    0.1861    0.0741 C   0  0  0  0  0  0  0  0  0  0  0  0
   -2.6599   -1.2782   -0.7334 H   0  0  0  0  0  0  0  0  0  0  0  0
   -2.6790   -1.2596    0.9574 H   0  0  0  0  0  0  0  0  0  0  0  0
   -0.1598   -0.6947   -0.0247 C   0  0  0  0  0  0  0  0  0  0  0  0
   -1.3782    1.0112    1.0170 H   0  0  0  0  0  0  0  0  0  0  0  0
   -1.3959    0.6573   -0.7094 H   0  0  0  0  0  0  0  0  0  0  0  0
   -0.0410   -1.4112    0.9512 H   0  0  0  0  0  0  0  0  0  0  0  0
    0.7598   -0.0696   -0.1658 H   0  0  0  0  0  0  0  0  0  0  0  0
   -0.2590   -1.3142   -0.8869 H   0  0  0  0  0  0  0  0  0  0  0  0
  1  3  1  0  0  0  0
  1  2  1  0  0  0  0
  1  5  1  0  0  0  0
  2  8  1  0  0  0  0
  4  1  1  0  0  0  0
  6  2  1  0  0  0  0
  6 10  1  0  0  0  0
  7  2  1  0  0  0  0
  9  6  1  0  0  0  0
  9 12  1  0  0  0  0
 11  6  1  0  0  0  0
 13  9  1  0  0  0  0
 14  9  1  0  0  0  0
M  END
$$$$
