butane_opt
 OpenBabel08242015413D

 14 13  0  0  0  0  0  0  0  0999 V2000
   -3.9339    0.2630    0.0020 C   0  0  0  0  0  0  0  0  0  0  0  0
   -2.7140   -0.6182    0.0454 C   0  0  0  0  0  0  0  0  0  0  0  0
   -4.8435   -0.2723   -0.0045 H   0  0  0  0  0  0  0  0  0  0  0  0
   -4.0296    0.8537   -0.8645 H   0  0  0  0  0  0  0  0  0  0  0  0
   -4.0226    0.9377    0.8505 H   0  0  0  0  0  0  0  0  0  0  0  0
   -1.3918    0.1782    0.0304 C   0  0  0  0  0  0  0  0  0  0  0  0
   -2.6990   -1.2695   -0.7751 H   0  0  0  0  0  0  0  0  0  0  0  0
   -2.7212   -1.2178    0.9280 H   0  0  0  0  0  0  0  0  0  0  0  0
   -0.1605   -0.6963    0.0153 C   0  0  0  0  0  0  0  0  0  0  0  0
   -1.3046    0.9477    0.9189 H   0  0  0  0  0  0  0  0  0  0  0  0
   -1.4295    0.7896   -0.8195 H   0  0  0  0  0  0  0  0  0  0  0  0
   -0.1249   -1.3823    0.9891 H   0  0  0  0  0  0  0  0  0  0  0  0
    0.7468   -0.1075   -0.1296 H   0  0  0  0  0  0  0  0  0  0  0  0
   -0.1832   -1.2830   -0.7631 H   0  0  0  0  0  0  0  0  0  0  0  0
  1  2  1  0  0  0  0
  1  5  1  0  0  0  0
  2  8  1  0  0  0  0
  3  1  1  0  0  0  0
  4  1  1  0  0  0  0
  6  2  1  0  0  0  0
  6 10  1  0  0  0  0
  7  2  1  0  0  0  0
  9  6  1  0  0  0  0
  9 12  1  0  0  0  0
 11  6  1  0  0  0  0
 13  9  1  0  0  0  0
 14  9  1  0  0  0  0
M  END
$$$$
