14
butane_opt
C  -3.958790   0.289739   0.033354
C  -2.692323  -0.647855   0.022159
H  -4.812038  -0.284869  -0.019521
H  -4.030727   0.712099  -0.754351
H  -4.063689   1.084032   0.954847
C  -1.395158   0.166190  -0.025704
H  -2.772427  -1.310234  -0.833787
H  -2.633301  -1.326185   0.925124
C  -0.158109  -0.662487   0.062913
H  -1.425687   0.814201   0.832729
H  -1.329351   0.847288  -0.944877
H  -0.099888  -1.307691   0.995771
H   0.713674  -0.117777  -0.003295
H  -0.130195  -1.326867  -0.814078
