14
butane_opt
C  -3.956039   0.251297   0.045780
C  -2.696124  -0.592863  -0.006765
H  -4.890024  -0.365389   0.089940
H  -3.886654   0.796987  -0.796972
H  -3.906337   0.918119   0.939518
C  -1.403073   0.194448  -0.003857
H  -2.724114  -1.316598  -0.861075
H  -2.667247  -1.175847   0.828465
C  -0.159493  -0.707833   0.060412
H  -1.533587   0.835337   0.839548
H  -1.360222   0.912208  -0.935411
H  -0.097135  -1.413612   1.012920
H   0.772968  -0.158983  -0.075313
H  -0.157459  -1.242947  -0.737360
