14
butane_opt
C  -3.940749   0.258622   0.003844
C  -2.682751  -0.605506   0.046653
H  -4.874372  -0.364493   0.254516
H  -4.030139   1.047952  -1.030118
H  -3.868359   0.768403   0.743886
C  -1.417193   0.197794   0.022042
H  -2.670595  -1.307424  -0.820617
H  -2.745811  -1.233661   0.942834
C  -0.166665  -0.708604   0.014560
H  -1.384714   0.927534   0.944545
H  -1.430005   0.670769  -0.758835
H  -0.167356  -1.267403   0.859150
H   0.789621  -0.021856   0.095587
H  -0.150134  -1.384981  -0.850377
