14
butane_opt
C  -3.952202   0.251129   0.015720
C  -2.698513  -0.608105   0.056179
H  -4.871249  -0.329146  -0.015499
H  -3.920758   0.874023  -0.891613
H  -3.984842   0.943747   0.881832
C  -1.408107   0.204271   0.002556
H  -2.748675  -1.268514  -0.785893
H  -2.736886  -1.240891   0.954261
C  -0.145674  -0.704566   0.022155
H  -1.360504   0.819277   0.848315
H  -1.467804   0.825246  -0.876799
H  -0.162680  -1.261551   0.891034
H   0.770320  -0.100024   0.135782
H  -0.085632  -1.446300  -0.861844
