14
butane_opt
C  -3.959026   0.274730   0.067231
C  -2.704409  -0.611902  -0.031450
H  -4.882949  -0.338384   0.233048
H  -4.058577   0.933433  -0.865990
H  -3.879389   0.865515   0.877662
C  -1.392494   0.177907  -0.025419
H  -2.758939  -1.273653  -0.878045
H  -2.732749  -1.253563   0.814169
C  -0.158006  -0.693524   0.071693
H  -1.406953   0.818404   0.803257
H  -1.320938   0.775480  -0.885400
H  -0.113421  -1.365773   1.010701
H   0.769609  -0.028415   0.103807
H  -0.086760  -1.358484  -0.753838
