butane_opt
 OpenBabel08242015413D

 14 13  0  0  0  0  0  0  0  0999 V2000
   -3.9590    0.2747    0.0672 C   0  0  0  0  0  0  0  0  0  0  0  0
   -2.7044   -0.6119   -0.0314 C   0  0  0  0  0  0  0  0  0  0  0  0
   -4.8829   -0.3384    0.2330 H   0  0  0  0  0  0  0  0  0  0  0  0
   -4.0586    0.9334   -0.8660 H   0  0  0  0  0  0  0  0  0  0  0  0
   -3.8794    0.8655    0.8777 H   0  0  0  0  0  0  0  0  0  0  0  0
   -1.3925    0.1779   -0.0254 C   0  0  0  0  0  0  0  0  0  0  0  0
   -2.7589   -1.2737   -0.8780 H   0  0  0  0  0  0  0  0  0  0  0  0
   -2.7327   -1.2536    0.8142 H   0  0  0  0  0  0  0  0  0  0  0  0
   -0.1580   -0.6935    0.0717 C   0  0  0  0  0  0  0  0  0  0  0  0
   -1.4070    0.8184    0.8033 H   0  0  0  0  0  0  0  0  0  0  0  0
   -1.3209    0.7755   -0.8854 H   0  0  0  0  0  0  0  0  0  0  0  0
   -0.1134   -1.3658    1.0107 H   0  0  0  0  0  0  0  0  0  0  0  0
    0.7696   -0.0284    0.1038 H   0  0  0  0  0  0  0  0  0  0  0  0
   -0.0868   -1.3585   -0.7538 H   0  0  0  0  0  0  0  0  0  0  0  0
  1  3  1  0  0  0  0
  1  5  1  0  0  0  0
  2  6  1  0  0  0  0
  2  1  1  0  0  0  0
  2  8  1  0  0  0  0
  4  1  1  0  0  0  0
  6  9  1  0  0  0  0
  6 10  1  0  0  0  0
  7  2  1  0  0  0  0
  9 13  1  0  0  0  0
  9 12  1  0  0  0  0
 11  6  1  0  0  0  0
 14  9  1  0  0  0  0
M  END
$$$$
