14
butane_opt
C  -3.922207   0.279446  -0.030803
C  -2.702753  -0.628874   0.104810
H  -4.882539  -0.340086  -0.148887
H  -3.857995   0.821501  -0.890592
H  -4.052788   1.013108   0.904922
C  -1.405469   0.181289   0.048046
H  -2.611018  -1.318606  -0.709164
H  -2.689825  -1.267729   1.021390
C  -0.183503  -0.678411  -0.002112
H  -1.396788   0.794533   0.871648
H  -1.360020   0.796505  -0.878573
H  -0.119692  -1.240463   0.839718
H   0.740292  -0.119299  -0.093210
H  -0.225828  -1.449406  -0.925479
