butane_opt
 OpenBabel08242015413D

 14 13  0  0  0  0  0  0  0  0999 V2000
   -3.9249    0.2621    0.0839 C   0  0  0  0  0  0  0  0  0  0  0  0
   -2.6909   -0.6094    0.0062 C   0  0  0  0  0  0  0  0  0  0  0  0
   -4.8481   -0.3632   -0.0180 H   0  0  0  0  0  0  0  0  0  0  0  0
   -3.9810    0.7703   -0.7456 H   0  0  0  0  0  0  0  0  0  0  0  0
   -3.9274    0.9412    0.9066 H   0  0  0  0  0  0  0  0  0  0  0  0
   -1.4177    0.1955   -0.0787 C   0  0  0  0  0  0  0  0  0  0  0  0
   -2.8381   -1.3668   -0.8714 H   0  0  0  0  0  0  0  0  0  0  0  0
   -2.5970   -1.1492    0.8222 H   0  0  0  0  0  0  0  0  0  0  0  0
   -0.1725   -0.6875    0.0946 C   0  0  0  0  0  0  0  0  0  0  0  0
   -1.4646    0.7836    0.7051 H   0  0  0  0  0  0  0  0  0  0  0  0
   -1.3857    0.8739   -1.0140 H   0  0  0  0  0  0  0  0  0  0  0  0
   -0.2232   -1.2778    0.9593 H   0  0  0  0  0  0  0  0  0  0  0  0
    0.7027   -0.1697    0.2279 H   0  0  0  0  0  0  0  0  0  0  0  0
    0.0070   -1.4508   -0.8149 H   0  0  0  0  0  0  0  0  0  0  0  0
  1  5  1  0  0  0  0
  2  1  1  0  0  0  0
  2  8  1  0  0  0  0
  3  1  1  0  0  0  0
  4  1  1  0  0  0  0
  6  2  1  0  0  0  0
  6  9  1  0  0  0  0
  6 10  1  0  0  0  0
  7  2  1  0  0  0  0
  9 13  1  0  0  0  0
  9 12  1  0  0  0  0
 11  6  1  0  0  0  0
 14  9  1  0  0  0  0
M  END
$$$$
