butane_opt
 OpenBabel08242015413D

 14 13  0  0  0  0  0  0  0  0999 V2000
   -3.9499    0.2392    0.0048 C   0  0  0  0  0  0  0  0  0  0  0  0
   -2.7147   -0.6107    0.0446 C   0  0  0  0  0  0  0  0  0  0  0  0
   -4.8664   -0.3885    0.2708 H   0  0  0  0  0  0  0  0  0  0  0  0
   -3.9907    1.0646   -1.0084 H   0  0  0  0  0  0  0  0  0  0  0  0
   -3.9424    0.7974    0.7767 H   0  0  0  0  0  0  0  0  0  0  0  0
   -1.4061    0.2317    0.0199 C   0  0  0  0  0  0  0  0  0  0  0  0
   -2.7170   -1.2801   -0.8114 H   0  0  0  0  0  0  0  0  0  0  0  0
   -2.7058   -1.2066    0.9187 H   0  0  0  0  0  0  0  0  0  0  0  0
   -0.1491   -0.7139    0.0213 C   0  0  0  0  0  0  0  0  0  0  0  0
   -1.3239    0.9168    0.8976 H   0  0  0  0  0  0  0  0  0  0  0  0
   -1.4895    0.7686   -0.8385 H   0  0  0  0  0  0  0  0  0  0  0  0
   -0.0883   -1.2043    0.8532 H   0  0  0  0  0  0  0  0  0  0  0  0
    0.7382   -0.1831    0.1338 H   0  0  0  0  0  0  0  0  0  0  0  0
    0.0095   -1.5099   -0.8548 H   0  0  0  0  0  0  0  0  0  0  0  0
  1  2  1  0  0  0  0
  1  3  1  0  0  0  0
  1  5  1  0  0  0  0
  2  8  1  0  0  0  0
  4  1  1  0  0  0  0
  6  9  1  0  0  0  0
  6  2  1  0  0  0  0
  6 10  1  0  0  0  0
  7  2  1  0  0  0  0
  9 13  1  0  0  0  0
  9 12  1  0  0  0  0
 11  6  1  0  0  0  0
 14  9  1  0  0  0  0
M  END
$$$$
