butane_opt
 OpenBabel08242015413D

 14 13  0  0  0  0  0  0  0  0999 V2000
   -3.9700    0.2437    0.0110 C   0  0  0  0  0  0  0  0  0  0  0  0
   -2.7097   -0.6023    0.0530 C   0  0  0  0  0  0  0  0  0  0  0  0
   -4.9029   -0.3660   -0.0518 H   0  0  0  0  0  0  0  0  0  0  0  0
   -3.9361    0.9567   -0.9267 H   0  0  0  0  0  0  0  0  0  0  0  0
   -4.0058    0.8595    0.7966 H   0  0  0  0  0  0  0  0  0  0  0  0
   -1.3952    0.2122    0.0447 C   0  0  0  0  0  0  0  0  0  0  0  0
   -2.6976   -1.3130   -0.8378 H   0  0  0  0  0  0  0  0  0  0  0  0
   -2.6646   -1.2283    0.9239 H   0  0  0  0  0  0  0  0  0  0  0  0
   -0.1322   -0.7121    0.0136 C   0  0  0  0  0  0  0  0  0  0  0  0
   -1.3419    0.8990    0.9340 H   0  0  0  0  0  0  0  0  0  0  0  0
   -1.4507    0.8429   -0.8643 H   0  0  0  0  0  0  0  0  0  0  0  0
   -0.0596   -1.3519    0.9161 H   0  0  0  0  0  0  0  0  0  0  0  0
    0.7164   -0.1815   -0.0932 H   0  0  0  0  0  0  0  0  0  0  0  0
   -0.1749   -1.2998   -0.8299 H   0  0  0  0  0  0  0  0  0  0  0  0
  1  2  1  0  0  0  0
  1  5  1  0  0  0  0
  2  8  1  0  0  0  0
  3  1  1  0  0  0  0
  4  1  1  0  0  0  0
  6  2  1  0  0  0  0
  6 10  1  0  0  0  0
  7  2  1  0  0  0  0
  9  6  1  0  0  0  0
  9 12  1  0  0  0  0
 11  6  1  0  0  0  0
 13  9  1  0  0  0  0
 14  9  1  0  0  0  0
M  END
$$$$
