14
butane_opt
C  -3.970014   0.243723   0.011029
C  -2.709660  -0.602277   0.053028
H  -4.902905  -0.366003  -0.051770
H  -3.936084   0.956683  -0.926733
H  -4.005848   0.859466   0.796564
C  -1.395215   0.212165   0.044712
H  -2.697563  -1.313047  -0.837757
H  -2.664593  -1.228275   0.923857
C  -0.132246  -0.712096   0.013640
H  -1.341897   0.899003   0.933956
H  -1.450671   0.842917  -0.864290
H  -0.059619  -1.351873   0.916125
H   0.716385  -0.181546  -0.093177
H  -0.174915  -1.299773  -0.829852
