14
butane_opt
C  -3.922448   0.250693  -0.022216
C  -2.705589  -0.599269   0.054284
H  -4.792962  -0.344201   0.093396
H  -3.895658   0.862721  -0.881195
H  -3.899661   0.895633   0.824974
C  -1.400607   0.208801   0.065779
H  -2.731415  -1.272438  -0.763614
H  -2.744812  -1.207764   0.916910
C  -0.181261  -0.713122   0.010098
H  -1.431105   0.865617   0.867149
H  -1.477642   0.833655  -0.840559
H  -0.049790  -1.388403   0.941298
H   0.758806  -0.100300  -0.141314
H  -0.250364  -1.372719  -0.864808
