14
butane_opt
C  -3.944968   0.270236   0.000815
C  -2.684270  -0.633323   0.041866
H  -4.805262  -0.297909   0.238331
H  -4.065119   1.085984  -1.031735
H  -4.050345   0.764915   0.732552
C  -1.401178   0.175718   0.039716
H  -2.724100  -1.269943  -0.781844
H  -2.767703  -1.273394   0.949627
C  -0.155282  -0.683799   0.004557
H  -1.402838   0.949405   0.962155
H  -1.385154   0.728567  -0.740956
H  -0.155845  -1.217149   0.856055
H   0.741752  -0.097325   0.035568
H  -0.170471  -1.385769  -0.847332
