butane_opt
 OpenBabel08242015413D

 14 13  0  0  0  0  0  0  0  0999 V2000
   -3.9456    0.2534    0.0674 C   0  0  0  0  0  0  0  0  0  0  0  0
   -2.7276   -0.5939    0.0190 C   0  0  0  0  0  0  0  0  0  0  0  0
   -4.9386   -0.4306    0.1469 H   0  0  0  0  0  0  0  0  0  0  0  0
   -3.9419    0.8462   -0.7996 H   0  0  0  0  0  0  0  0  0  0  0  0
   -3.9838    0.9560    0.8895 H   0  0  0  0  0  0  0  0  0  0  0  0
   -1.3898    0.2008   -0.0682 C   0  0  0  0  0  0  0  0  0  0  0  0
   -2.8417   -1.3302   -0.8998 H   0  0  0  0  0  0  0  0  0  0  0  0
   -2.6512   -1.1360    0.8355 H   0  0  0  0  0  0  0  0  0  0  0  0
   -0.1369   -0.7081    0.0826 C   0  0  0  0  0  0  0  0  0  0  0  0
   -1.4877    0.7981    0.7097 H   0  0  0  0  0  0  0  0  0  0  0  0
   -1.3419    0.8531   -1.0227 H   0  0  0  0  0  0  0  0  0  0  0  0
   -0.1838   -1.1827    0.9051 H   0  0  0  0  0  0  0  0  0  0  0  0
    0.6792   -0.1999    0.2882 H   0  0  0  0  0  0  0  0  0  0  0  0
    0.0794   -1.4968   -0.8295 H   0  0  0  0  0  0  0  0  0  0  0  0
  1  3  1  0  0  0  0
  1  5  1  0  0  0  0
  2  1  1  0  0  0  0
  2  8  1  0  0  0  0
  4  1  1  0  0  0  0
  6  2  1  0  0  0  0
  6  9  1  0  0  0  0
  6 10  1  0  0  0  0
  7  2  1  0  0  0  0
  9 13  1  0  0  0  0
  9 12  1  0  0  0  0
 11  6  1  0  0  0  0
 14  9  1  0  0  0  0
M  END
$$$$
