14
butane_opt
C  -3.949936   0.239231   0.004763
C  -2.714662  -0.610738   0.044593
H  -4.866430  -0.388490   0.270835
H  -3.990659   1.064589  -1.008414
H  -3.942389   0.797395   0.776669
C  -1.406134   0.231680   0.019900
H  -2.716977  -1.280054  -0.811447
H  -2.705786  -1.206572   0.918712
C  -0.149126  -0.713939   0.021308
H  -1.323945   0.916776   0.897578
H  -1.489515   0.768619  -0.838466
H  -0.088281  -1.204313   0.853226
H   0.738172  -0.183147   0.133766
H   0.009514  -1.509906  -0.854775
