butane_opt
 OpenBabel08242015413D

 14 13  0  0  0  0  0  0  0  0999 V2000
   -3.9314    0.2450   -0.0430 C   0  0  0  0  0  0  0  0  0  0  0  0
   -2.7010   -0.5990    0.0972 C   0  0  0  0  0  0  0  0  0  0  0  0
   -4.8998   -0.3894   -0.1374 H   0  0  0  0  0  0  0  0  0  0  0  0
   -3.8913    0.8749   -0.9078 H   0  0  0  0  0  0  0  0  0  0  0  0
   -3.9457    0.9487    0.8670 H   0  0  0  0  0  0  0  0  0  0  0  0
   -1.4056    0.2112    0.0607 C   0  0  0  0  0  0  0  0  0  0  0  0
   -2.7869   -1.1016   -0.6666 H   0  0  0  0  0  0  0  0  0  0  0  0
   -2.7959   -1.3046    1.0469 H   0  0  0  0  0  0  0  0  0  0  0  0
   -0.1585   -0.7291   -0.0136 C   0  0  0  0  0  0  0  0  0  0  0  0
   -1.4274    0.9601    0.9360 H   0  0  0  0  0  0  0  0  0  0  0  0
   -1.4421    0.7715   -0.7430 H   0  0  0  0  0  0  0  0  0  0  0  0
   -0.0298   -1.2654    0.8201 H   0  0  0  0  0  0  0  0  0  0  0  0
    0.7951   -0.1154   -0.1123 H   0  0  0  0  0  0  0  0  0  0  0  0
   -0.2300   -1.4006   -0.8973 H   0  0  0  0  0  0  0  0  0  0  0  0
  1  2  1  0  0  0  0
  1  5  1  0  0  0  0
  2  8  1  0  0  0  0
  3  1  1  0  0  0  0
  4  1  1  0  0  0  0
  6  2  1  0  0  0  0
  6 10  1  0  0  0  0
  7  2  1  0  0  0  0
  9  6  1  0  0  0  0
  9 12  1  0  0  0  0
 11  6  1  0  0  0  0
 13  9  1  0  0  0  0
 14  9  1  0  0  0  0
M  END
$$$$
