14
butane_opt
C  -3.963896   0.274675  -0.031837
C  -2.701629  -0.619955   0.101384
H  -4.886282  -0.312904   0.080671
H  -4.012375   0.873188  -0.881725
H  -3.986597   0.849742   0.760031
C  -1.395477   0.180955   0.036892
H  -2.728955  -1.235421  -0.739152
H  -2.731523  -1.279330   0.993086
C  -0.145042  -0.687716   0.002415
H  -1.348114   0.797217   0.827454
H  -1.398645   0.840429  -0.865869
H  -0.109710  -1.107486   0.739638
H   0.746915  -0.111101   0.228465
H  -0.100023  -1.572937  -1.026332
