butane_opt
 OpenBabel08242015413D

 14 13  0  0  0  0  0  0  0  0999 V2000
   -3.9615    0.2417    0.0475 C   0  0  0  0  0  0  0  0  0  0  0  0
   -2.7100   -0.6035    0.0226 C   0  0  0  0  0  0  0  0  0  0  0  0
   -4.8877   -0.3785    0.1298 H   0  0  0  0  0  0  0  0  0  0  0  0
   -4.0316    0.9047   -0.8585 H   0  0  0  0  0  0  0  0  0  0  0  0
   -3.8821    0.8622    0.8546 H   0  0  0  0  0  0  0  0  0  0  0  0
   -1.4023    0.2286   -0.0272 C   0  0  0  0  0  0  0  0  0  0  0  0
   -2.7374   -1.3067   -0.8561 H   0  0  0  0  0  0  0  0  0  0  0  0
   -2.6779   -1.2390    0.8685 H   0  0  0  0  0  0  0  0  0  0  0  0
   -0.1513   -0.7230    0.0402 C   0  0  0  0  0  0  0  0  0  0  0  0
   -1.4111    0.9394    0.8332 H   0  0  0  0  0  0  0  0  0  0  0  0
   -1.3695    0.9049   -0.9412 H   0  0  0  0  0  0  0  0  0  0  0  0
   -0.1929   -1.2828    0.9249 H   0  0  0  0  0  0  0  0  0  0  0  0
    0.7665   -0.1729    0.2641 H   0  0  0  0  0  0  0  0  0  0  0  0
    0.1080   -1.4378   -0.7905 H   0  0  0  0  0  0  0  0  0  0  0  0
  1  3  1  0  0  0  0
  1  5  1  0  0  0  0
  2  1  1  0  0  0  0
  2  8  1  0  0  0  0
  4  1  1  0  0  0  0
  6  2  1  0  0  0  0
  6  9  1  0  0  0  0
  6 10  1  0  0  0  0
  7  2  1  0  0  0  0
  9 13  1  0  0  0  0
  9 12  1  0  0  0  0
 11  6  1  0  0  0  0
 14  9  1  0  0  0  0
M  END
$$$$
