14
butane_opt
C  -3.968152   0.271669   0.051341
C  -2.699861  -0.636962   0.003656
H  -4.778768  -0.216565   0.117638
H  -4.131389   0.865901  -0.795945
H  -3.971859   0.974053   0.930121
C  -1.389835   0.171062  -0.036005
H  -2.655563  -1.297247  -0.810041
H  -2.697707  -1.240657   0.919736
C  -0.154698  -0.676619   0.057586
H  -1.421349   0.760080   0.753655
H  -1.310180   0.840026  -0.966787
H  -0.248076  -1.262504   0.928390
H   0.789805  -0.002989   0.286022
H  -0.057690  -1.433592  -0.841147
