butane_opt
 OpenBabel08242015413D

 14 13  0  0  0  0  0  0  0  0999 V2000
   -3.9325    0.2448   -0.0132 C   0  0  0  0  0  0  0  0  0  0  0  0
   -2.6887   -0.5999    0.0899 C   0  0  0  0  0  0  0  0  0  0  0  0
   -4.8517   -0.3982    0.0373 H   0  0  0  0  0  0  0  0  0  0  0  0
   -3.8188    0.9107   -0.9831 H   0  0  0  0  0  0  0  0  0  0  0  0
   -3.9127    0.8764    0.8420 H   0  0  0  0  0  0  0  0  0  0  0  0
   -1.4148    0.2110    0.0234 C   0  0  0  0  0  0  0  0  0  0  0  0
   -2.7148   -1.2104   -0.7518 H   0  0  0  0  0  0  0  0  0  0  0  0
   -2.7723   -1.2616    1.0116 H   0  0  0  0  0  0  0  0  0  0  0  0
   -0.1762   -0.7155    0.0136 C   0  0  0  0  0  0  0  0  0  0  0  0
   -1.4009    0.8996    0.8774 H   0  0  0  0  0  0  0  0  0  0  0  0
   -1.4263    0.9303   -0.9114 H   0  0  0  0  0  0  0  0  0  0  0  0
   -0.0976   -1.1293    0.7589 H   0  0  0  0  0  0  0  0  0  0  0  0
    0.7068   -0.1314    0.1771 H   0  0  0  0  0  0  0  0  0  0  0  0
   -0.1819   -1.6575   -1.0012 H   0  0  0  0  0  0  0  0  0  0  0  0
  1  3  1  0  0  0  0
  1  2  1  0  0  0  0
  1  5  1  0  0  0  0
  2  8  1  0  0  0  0
  4  1  1  0  0  0  0
  6  2  1  0  0  0  0
  6 10  1  0  0  0  0
  7  2  1  0  0  0  0
  9  6  1  0  0  0  0
  9 13  1  0  0  0  0
  9 12  1  0  0  0  0
 11  6  1  0  0  0  0
 14  9  1  0  0  0  0
M  END
$$$$
