butane_opt
 OpenBabel08242015413D

 14 13  0  0  0  0  0  0  0  0999 V2000
   -3.9626    0.2831    0.0517 C   0  0  0  0  0  0  0  0  0  0  0  0
   -2.6986   -0.6309   -0.0258 C   0  0  0  0  0  0  0  0  0  0  0  0
   -4.8329   -0.2488    0.2406 H   0  0  0  0  0  0  0  0  0  0  0  0
   -4.1048    0.9416   -0.8362 H   0  0  0  0  0  0  0  0  0  0  0  0
   -3.8096    0.8927    0.9212 H   0  0  0  0  0  0  0  0  0  0  0  0
   -1.3971    0.1561   -0.0169 C   0  0  0  0  0  0  0  0  0  0  0  0
   -2.7493   -1.3986   -0.9215 H   0  0  0  0  0  0  0  0  0  0  0  0
   -2.6799   -1.2639    0.8564 H   0  0  0  0  0  0  0  0  0  0  0  0
   -0.1521   -0.6719    0.0672 C   0  0  0  0  0  0  0  0  0  0  0  0
   -1.4353    0.8647    0.8159 H   0  0  0  0  0  0  0  0  0  0  0  0
   -1.4317    0.8051   -0.9384 H   0  0  0  0  0  0  0  0  0  0  0  0
   -0.1888   -1.3793    1.0438 H   0  0  0  0  0  0  0  0  0  0  0  0
    0.8382   -0.0386    0.0966 H   0  0  0  0  0  0  0  0  0  0  0  0
   -0.1329   -1.2563   -0.7432 H   0  0  0  0  0  0  0  0  0  0  0  0
  1  3  1  0  0  0  0
  1  5  1  0  0  0  0
  2  6  1  0  0  0  0
  2  1  1  0  0  0  0
  2  8  1  0  0  0  0
  4  1  1  0  0  0  0
  6  9  1  0  0  0  0
  6 10  1  0  0  0  0
  7  2  1  0  0  0  0
  9 13  1  0  0  0  0
  9 12  1  0  0  0  0
 11  6  1  0  0  0  0
 14  9  1  0  0  0  0
M  END
$$$$
