14
butane_opt
C  -3.937556   0.253525   0.024422
C  -2.693199  -0.599053   0.046841
H  -4.845814  -0.326897  -0.128518
H  -3.915323   0.743699  -0.775826
H  -3.988099   1.023385   0.931018
C  -1.415113   0.180970  -0.006640
H  -2.710896  -1.256336  -0.796342
H  -2.740111  -1.221533   0.929999
C  -0.154492  -0.699105   0.045317
H  -1.437131   0.837223   0.814233
H  -1.385014   0.858235  -0.909780
H  -0.142466  -1.329005   0.935752
H   0.756991  -0.104490  -0.040304
H  -0.205049  -1.343405  -0.829886
