14
butane_opt
C  -3.962638   0.283143   0.051703
C  -2.698600  -0.630917  -0.025781
H  -4.832916  -0.248818   0.240551
H  -4.104813   0.941616  -0.836169
H  -3.809645   0.892714   0.921156
C  -1.397122   0.156083  -0.016887
H  -2.749273  -1.398625  -0.921510
H  -2.679853  -1.263934   0.856399
C  -0.152052  -0.671926   0.067166
H  -1.435304   0.864749   0.815867
H  -1.431746   0.805120  -0.938394
H  -0.188838  -1.379280   1.043837
H   0.838216  -0.038550   0.096560
H  -0.132923  -1.256265  -0.743206
