14
butane_opt
C  -3.931391   0.245050  -0.042988
C  -2.701004  -0.599033   0.097162
H  -4.899833  -0.389448  -0.137374
H  -3.891285   0.874906  -0.907791
H  -3.945729   0.948654   0.866954
C  -1.405550   0.211193   0.060731
H  -2.786892  -1.101634  -0.666602
H  -2.795870  -1.304644   1.046944
C  -0.158498  -0.729063  -0.013572
H  -1.427435   0.960087   0.936000
H  -1.442082   0.771550  -0.742966
H  -0.029787  -1.265354   0.820071
H   0.795064  -0.115443  -0.112280
H  -0.229997  -1.400638  -0.897320
