butane_opt
 OpenBabel08242015413D

 14 13  0  0  0  0  0  0  0  0999 V2000
   -3.9500    0.2537    0.0425 C   0  0  0  0  0  0  0  0  0  0  0  0
   -2.7096   -0.6185   -0.0026 C   0  0  0  0  0  0  0  0  0  0  0  0
   -4.8211   -0.2952    0.0421 H   0  0  0  0  0  0  0  0  0  0  0  0
   -3.9048    0.8107   -0.8275 H   0  0  0  0  0  0  0  0  0  0  0  0
   -3.9908    1.0201    0.9021 H   0  0  0  0  0  0  0  0  0  0  0  0
   -1.4017    0.1936    0.0090 C   0  0  0  0  0  0  0  0  0  0  0  0
   -2.7799   -1.3241   -0.8678 H   0  0  0  0  0  0  0  0  0  0  0  0
   -2.7039   -1.1955    0.8320 H   0  0  0  0  0  0  0  0  0  0  0  0
   -0.1430   -0.6939    0.0437 C   0  0  0  0  0  0  0  0  0  0  0  0
   -1.4966    0.9110    0.8829 H   0  0  0  0  0  0  0  0  0  0  0  0
   -1.3901    0.7908   -0.8332 H   0  0  0  0  0  0  0  0  0  0  0  0
   -0.0320   -1.5436    1.0779 H   0  0  0  0  0  0  0  0  0  0  0  0
    0.7070   -0.1628   -0.2174 H   0  0  0  0  0  0  0  0  0  0  0  0
   -0.1650   -1.0959   -0.6312 H   0  0  0  0  0  0  0  0  0  0  0  0
  1  5  1  0  0  0  0
  2  6  1  0  0  0  0
  2  1  1  0  0  0  0
  2  8  1  0  0  0  0
  3  1  1  0  0  0  0
  4  1  1  0  0  0  0
  6  9  1  0  0  0  0
  6 10  1  0  0  0  0
  7  2  1  0  0  0  0
  9 12  1  0  0  0  0
 11  6  1  0  0  0  0
 13  9  1  0  0  0  0
 14  9  1  0  0  0  0
M  END
$$$$
