14
butane_opt
C  -3.934135   0.240718   0.067232
C  -2.693445  -0.589044  -0.009910
H  -4.857394  -0.366055  -0.010325
H  -3.945356   0.754090  -0.760453
H  -3.891734   1.044594   0.983208
C  -1.408625   0.194432  -0.026804
H  -2.683692  -1.336695  -0.903294
H  -2.755836  -1.151881   0.811294
C  -0.166340  -0.704294   0.072623
H  -1.481656   0.766266   0.745117
H  -1.413062   0.935271  -0.970760
H  -0.080659  -1.424823   1.041354
H   0.684865  -0.177095  -0.011415
H  -0.159655  -1.225312  -0.686361
