butane_opt
 OpenBabel08242015413D

 14 13  0  0  0  0  0  0  0  0999 V2000
   -3.9341    0.2407    0.0672 C   0  0  0  0  0  0  0  0  0  0  0  0
   -2.6934   -0.5890   -0.0099 C   0  0  0  0  0  0  0  0  0  0  0  0
   -4.8574   -0.3661   -0.0103 H   0  0  0  0  0  0  0  0  0  0  0  0
   -3.9454    0.7541   -0.7605 H   0  0  0  0  0  0  0  0  0  0  0  0
   -3.8917    1.0446    0.9832 H   0  0  0  0  0  0  0  0  0  0  0  0
   -1.4086    0.1944   -0.0268 C   0  0  0  0  0  0  0  0  0  0  0  0
   -2.6837   -1.3367   -0.9033 H   0  0  0  0  0  0  0  0  0  0  0  0
   -2.7558   -1.1519    0.8113 H   0  0  0  0  0  0  0  0  0  0  0  0
   -0.1663   -0.7043    0.0726 C   0  0  0  0  0  0  0  0  0  0  0  0
   -1.4817    0.7663    0.7451 H   0  0  0  0  0  0  0  0  0  0  0  0
   -1.4131    0.9353   -0.9708 H   0  0  0  0  0  0  0  0  0  0  0  0
   -0.0807   -1.4248    1.0414 H   0  0  0  0  0  0  0  0  0  0  0  0
    0.6849   -0.1771   -0.0114 H   0  0  0  0  0  0  0  0  0  0  0  0
   -0.1597   -1.2253   -0.6864 H   0  0  0  0  0  0  0  0  0  0  0  0
  1  5  1  0  0  0  0
  2  1  1  0  0  0  0
  2  8  1  0  0  0  0
  3  1  1  0  0  0  0
  4  1  1  0  0  0  0
  6  2  1  0  0  0  0
  6  9  1  0  0  0  0
  6 10  1  0  0  0  0
  7  2  1  0  0  0  0
  9 12  1  0  0  0  0
 11  6  1  0  0  0  0
 13  9  1  0  0  0  0
 14  9  1  0  0  0  0
M  END
$$$$
