14
butane_opt
C  -3.962606   0.275497   0.037793
C  -2.694656  -0.639368   0.038465
H  -4.799800  -0.270219   0.037377
H  -4.060000   0.878092  -0.880502
H  -3.922491   0.986020   0.933034
C  -1.405021   0.163284  -0.014731
H  -2.748732  -1.312865  -0.837344
H  -2.755826  -1.243809   0.929561
C  -0.148827  -0.668106   0.047224
H  -1.439349   0.779220   0.752185
H  -1.334516   0.935005  -1.040515
H  -0.203458  -1.197000   0.869528
H   0.767103  -0.057565   0.260943
H  -0.014717  -1.538099  -0.902240
