14
butane_opt
C  -3.965409   0.287905   0.064506
C  -2.707674  -0.636553  -0.016861
H  -4.948413  -0.390551   0.112923
H  -4.051937   0.793934  -0.721940
H  -3.930431   1.124536   1.036455
C  -1.377163   0.168427  -0.062110
H  -2.760998  -1.274308  -0.846486
H  -2.667564  -1.324511   0.868475
C  -0.155573  -0.681276   0.083030
H  -1.400241   0.794051   0.740043
H  -1.348537   0.909676  -1.025622
H  -0.253920  -1.269175   0.985460
H   0.784649  -0.099871   0.242966
H   0.020389  -1.404043  -0.760207
