14
butane_opt
C  -3.939013   0.248590   0.051419
C  -2.726049  -0.599822  -0.011403
H  -4.889514  -0.340776   0.060559
H  -4.040634   0.774230  -0.775871
H  -3.928351   0.966511   0.943280
C  -1.417321   0.203691   0.002898
H  -2.743884  -1.315663  -0.895584
H  -2.760650  -1.109283   0.803040
C  -0.122662  -0.718082   0.056255
H  -1.458939   0.827419   0.768951
H  -1.304229   0.897230  -0.961380
H  -0.019727  -1.473102   1.040309
H   0.762038  -0.137277  -0.084584
H  -0.165332  -1.183287  -0.619726
