14
butane_opt
C  -3.937306   0.245969   0.047610
C  -2.714844  -0.602396  -0.011096
H  -4.886879  -0.349352   0.019426
H  -3.914898   0.740887  -0.764247
H  -3.954666   1.014650   0.946978
C  -1.410711   0.221890  -0.001094
H  -2.751219  -1.314758  -0.926361
H  -2.692452  -1.162694   0.795928
C  -0.155065  -0.713906   0.080634
H  -1.345388   0.846762   0.796174
H  -1.330529   0.885804  -0.909214
H   0.055441  -1.535371   1.117455
H   0.697879  -0.208800  -0.290489
H  -0.270312  -1.224016  -0.699964
