14
butane_opt
C  -3.965627   0.292818   0.035242
C  -2.711790  -0.640145   0.001146
H  -4.906188  -0.346997   0.050286
H  -4.105277   0.859685  -0.825717
H  -3.969195   0.990914   0.910993
C  -1.376019   0.154783  -0.005142
H  -2.744520  -1.281342  -0.822399
H  -2.669518  -1.212057   0.889577
C  -0.150929  -0.674363   0.065547
H  -1.366241   0.848384   0.838243
H  -1.336778   0.778803  -0.883713
H  -0.014170  -1.384393   1.007337
H   0.741582  -0.079998  -0.076882
H  -0.203915  -1.250154  -0.798945
