14
butane_opt
C  -3.939912   0.260402  -0.020424
C  -2.716102  -0.607560   0.098587
H  -4.868139  -0.340560  -0.134243
H  -3.831215   0.818978  -0.899185
H  -4.048936   0.956079   0.867052
C  -1.403573   0.191284   0.037288
H  -2.764132  -1.257578  -0.734015
H  -2.735826  -1.232290   0.982397
C  -0.146502  -0.709539  -0.003278
H  -1.376083   0.883236   0.902576
H  -1.452513   0.836196  -0.834971
H  -0.056289  -1.276287   0.841873
H   0.756394  -0.101594  -0.016679
H  -0.174519  -1.379299  -0.879379
