14
butane_opt
C  -3.952366   0.238806  -0.002034
C  -2.716180  -0.583168   0.069875
H  -4.840891  -0.346934   0.035710
H  -3.920526   0.900931  -0.966320
H  -3.933441   0.867182   0.806052
C  -1.426799   0.205089   0.025312
H  -2.747452  -1.280233  -0.786896
H  -2.779860  -1.246312   1.029347
C  -0.123773  -0.709057   0.023860
H  -1.389968   0.842431   0.851682
H  -1.429026   0.839660  -0.875783
H  -0.019335  -1.168075   0.791949
H   0.787252  -0.161064   0.081595
H  -0.122256  -1.534434  -0.948709
