14
butane_opt
C  -3.917155   0.246775   0.038659
C  -2.700231  -0.576760   0.017182
H  -4.856417  -0.377074   0.093955
H  -4.010859   0.780890  -0.815290
H  -3.923396   1.001477   0.930817
C  -1.432203   0.182600  -0.039023
H  -2.768539  -1.248502  -0.832402
H  -2.660982  -1.335764   0.955054
C  -0.155493  -0.702866   0.065498
H  -1.436992   0.831788   0.813319
H  -1.398994   0.838260  -0.938737
H  -0.209388  -1.200871   0.902129
H   0.799815  -0.129279   0.186879
H  -0.085863  -1.428878  -0.844275
