14
butane_opt
C  -3.948395   0.269330   0.021873
C  -2.671072  -0.611144   0.020858
H  -4.806898  -0.340475   0.276777
H  -4.034683   1.089261  -1.009376
H  -3.920620   0.712454   0.705885
C  -1.406337   0.153424   0.042656
H  -2.688454  -1.261163  -0.840615
H  -2.761271  -1.194219   0.860781
C  -0.178904  -0.688840   0.034712
H  -1.462269   0.850280   0.906215
H  -1.367165   0.808426  -0.889245
H  -0.137485  -1.146855   0.832037
H   0.788238  -0.033154  -0.004735
H  -0.186502  -1.416530  -0.869874
