butane_opt
 OpenBabel08242015413D

 14 13  0  0  0  0  0  0  0  0999 V2000
   -3.9172    0.2468    0.0387 C   0  0  0  0  0  0  0  0  0  0  0  0
   -2.7002   -0.5768    0.0172 C   0  0  0  0  0  0  0  0  0  0  0  0
   -4.8564   -0.3771    0.0940 H   0  0  0  0  0  0  0  0  0  0  0  0
   -4.0109    0.7809   -0.8153 H   0  0  0  0  0  0  0  0  0  0  0  0
   -3.9234    1.0015    0.9308 H   0  0  0  0  0  0  0  0  0  0  0  0
   -1.4322    0.1826   -0.0390 C   0  0  0  0  0  0  0  0  0  0  0  0
   -2.7685   -1.2485   -0.8324 H   0  0  0  0  0  0  0  0  0  0  0  0
   -2.6610   -1.3358    0.9551 H   0  0  0  0  0  0  0  0  0  0  0  0
   -0.1555   -0.7029    0.0655 C   0  0  0  0  0  0  0  0  0  0  0  0
   -1.4370    0.8318    0.8133 H   0  0  0  0  0  0  0  0  0  0  0  0
   -1.3990    0.8383   -0.9387 H   0  0  0  0  0  0  0  0  0  0  0  0
   -0.2094   -1.2009    0.9021 H   0  0  0  0  0  0  0  0  0  0  0  0
    0.7998   -0.1293    0.1869 H   0  0  0  0  0  0  0  0  0  0  0  0
   -0.0859   -1.4289   -0.8443 H   0  0  0  0  0  0  0  0  0  0  0  0
  1  3  1  0  0  0  0
  1  5  1  0  0  0  0
  2  1  1  0  0  0  0
  2  8  1  0  0  0  0
  4  1  1  0  0  0  0
  6  2  1  0  0  0  0
  6  9  1  0  0  0  0
  6 10  1  0  0  0  0
  7  2  1  0  0  0  0
  9 13  1  0  0  0  0
  9 12  1  0  0  0  0
 11  6  1  0  0  0  0
 14  9  1  0  0  0  0
M  END
$$$$
