14
butane_opt
C  -3.971322   0.264716   0.069014
C  -2.712605  -0.611997  -0.001252
H  -4.887882  -0.338700   0.113828
H  -3.998750   0.847712  -0.802005
H  -3.890266   0.939132   0.947116
C  -1.389258   0.192539  -0.065914
H  -2.768966  -1.336435  -0.865910
H  -2.684574  -1.236161   0.863072
C  -0.135905  -0.687373   0.096968
H  -1.455163   0.764200   0.728885
H  -1.383440   0.935319  -1.023432
H  -0.155006  -1.257004   0.888298
H   0.771250  -0.119055   0.295949
H  -0.072826  -1.562880  -0.893936
