butane_opt
 OpenBabel08242015413D

 14 13  0  0  0  0  0  0  0  0999 V2000
   -3.9713    0.2647    0.0690 C   0  0  0  0  0  0  0  0  0  0  0  0
   -2.7126   -0.6120   -0.0013 C   0  0  0  0  0  0  0  0  0  0  0  0
   -4.8879   -0.3387    0.1138 H   0  0  0  0  0  0  0  0  0  0  0  0
   -3.9987    0.8477   -0.8020 H   0  0  0  0  0  0  0  0  0  0  0  0
   -3.8903    0.9391    0.9471 H   0  0  0  0  0  0  0  0  0  0  0  0
   -1.3893    0.1925   -0.0659 C   0  0  0  0  0  0  0  0  0  0  0  0
   -2.7690   -1.3364   -0.8659 H   0  0  0  0  0  0  0  0  0  0  0  0
   -2.6846   -1.2362    0.8631 H   0  0  0  0  0  0  0  0  0  0  0  0
   -0.1359   -0.6874    0.0970 C   0  0  0  0  0  0  0  0  0  0  0  0
   -1.4552    0.7642    0.7289 H   0  0  0  0  0  0  0  0  0  0  0  0
   -1.3834    0.9353   -1.0234 H   0  0  0  0  0  0  0  0  0  0  0  0
   -0.1550   -1.2570    0.8883 H   0  0  0  0  0  0  0  0  0  0  0  0
    0.7712   -0.1191    0.2959 H   0  0  0  0  0  0  0  0  0  0  0  0
   -0.0728   -1.5629   -0.8939 H   0  0  0  0  0  0  0  0  0  0  0  0
  1  3  1  0  0  0  0
  1  5  1  0  0  0  0
  2  1  1  0  0  0  0
  2  8  1  0  0  0  0
  4  1  1  0  0  0  0
  6  2  1  0  0  0  0
  6  9  1  0  0  0  0
  6 10  1  0  0  0  0
  7  2  1  0  0  0  0
  9 13  1  0  0  0  0
  9 12  1  0  0  0  0
 11  6  1  0  0  0  0
 14  9  1  0  0  0  0
M  END
$$$$
