butane_opt
 OpenBabel08242015413D

 14 13  0  0  0  0  0  0  0  0999 V2000
   -3.9328    0.2519    0.0883 C   0  0  0  0  0  0  0  0  0  0  0  0
   -2.7037   -0.5947   -0.0221 C   0  0  0  0  0  0  0  0  0  0  0  0
   -4.8483   -0.3618   -0.0179 H   0  0  0  0  0  0  0  0  0  0  0  0
   -3.9656    0.7389   -0.7552 H   0  0  0  0  0  0  0  0  0  0  0  0
   -3.8751    1.0115    1.0142 H   0  0  0  0  0  0  0  0  0  0  0  0
   -1.4097    0.1967   -0.0764 C   0  0  0  0  0  0  0  0  0  0  0  0
   -2.7250   -1.2289   -0.8392 H   0  0  0  0  0  0  0  0  0  0  0  0
   -2.7117   -1.2680    0.8983 H   0  0  0  0  0  0  0  0  0  0  0  0
   -0.1521   -0.7030    0.0948 C   0  0  0  0  0  0  0  0  0  0  0  0
   -1.5443    0.8132    0.7224 H   0  0  0  0  0  0  0  0  0  0  0  0
   -1.3884    0.8844   -0.9749 H   0  0  0  0  0  0  0  0  0  0  0  0
   -0.2584   -1.3371    0.9716 H   0  0  0  0  0  0  0  0  0  0  0  0
    0.7786   -0.0883    0.2008 H   0  0  0  0  0  0  0  0  0  0  0  0
   -0.1017   -1.4491   -0.7923 H   0  0  0  0  0  0  0  0  0  0  0  0
  1  5  1  0  0  0  0
  2  1  1  0  0  0  0
  2  8  1  0  0  0  0
  3  1  1  0  0  0  0
  4  1  1  0  0  0  0
  6  2  1  0  0  0  0
  6  9  1  0  0  0  0
  6 10  1  0  0  0  0
  7  2  1  0  0  0  0
  9 13  1  0  0  0  0
  9 12  1  0  0  0  0
 11  6  1  0  0  0  0
 14  9  1  0  0  0  0
M  END
$$$$
