butane_opt
 OpenBabel08242015413D

 14 13  0  0  0  0  0  0  0  0999 V2000
   -3.9201    0.2931   -0.0227 C   0  0  0  0  0  0  0  0  0  0  0  0
   -2.7028   -0.6378    0.0827 C   0  0  0  0  0  0  0  0  0  0  0  0
   -4.8390   -0.2925   -0.0889 H   0  0  0  0  0  0  0  0  0  0  0  0
   -3.9358    0.8643   -0.8869 H   0  0  0  0  0  0  0  0  0  0  0  0
   -4.0659    0.9191    0.8444 H   0  0  0  0  0  0  0  0  0  0  0  0
   -1.3908    0.1659    0.0464 C   0  0  0  0  0  0  0  0  0  0  0  0
   -2.6447   -1.2885   -0.7529 H   0  0  0  0  0  0  0  0  0  0  0  0
   -2.7491   -1.3017    0.9819 H   0  0  0  0  0  0  0  0  0  0  0  0
   -0.1817   -0.6855    0.0011 C   0  0  0  0  0  0  0  0  0  0  0  0
   -1.3797    0.9221    0.9343 H   0  0  0  0  0  0  0  0  0  0  0  0
   -1.4359    0.6888   -0.7383 H   0  0  0  0  0  0  0  0  0  0  0  0
   -0.1161   -1.3013    0.9051 H   0  0  0  0  0  0  0  0  0  0  0  0
    0.7397   -0.0416   -0.2162 H   0  0  0  0  0  0  0  0  0  0  0  0
   -0.2560   -1.2645   -0.8339 H   0  0  0  0  0  0  0  0  0  0  0  0
  1  2  1  0  0  0  0
  1  5  1  0  0  0  0
  2  8  1  0  0  0  0
  3  1  1  0  0  0  0
  4  1  1  0  0  0  0
  6  2  1  0  0  0  0
  6 10  1  0  0  0  0
  7  2  1  0  0  0  0
  9  6  1  0  0  0  0
  9 12  1  0  0  0  0
 11  6  1  0  0  0  0
 13  9  1  0  0  0  0
 14  9  1  0  0  0  0
M  END
$$$$
