butane_opt
 OpenBabel08242015413D

 14 13  0  0  0  0  0  0  0  0999 V2000
   -3.9748    0.2719   -0.0080 C   0  0  0  0  0  0  0  0  0  0  0  0
   -2.6874   -0.6261    0.0603 C   0  0  0  0  0  0  0  0  0  0  0  0
   -4.8960   -0.3259    0.1591 H   0  0  0  0  0  0  0  0  0  0  0  0
   -4.0727    1.1663   -1.0782 H   0  0  0  0  0  0  0  0  0  0  0  0
   -3.9438    0.7850    0.6942 H   0  0  0  0  0  0  0  0  0  0  0  0
   -1.3877    0.1507    0.0662 C   0  0  0  0  0  0  0  0  0  0  0  0
   -2.5965   -1.3171   -0.7665 H   0  0  0  0  0  0  0  0  0  0  0  0
   -2.7041   -1.2746    0.9982 H   0  0  0  0  0  0  0  0  0  0  0  0
   -0.1548   -0.6668   -0.0041 C   0  0  0  0  0  0  0  0  0  0  0  0
   -1.3789    0.8913    0.9245 H   0  0  0  0  0  0  0  0  0  0  0  0
   -1.3427    0.7875   -0.8001 H   0  0  0  0  0  0  0  0  0  0  0  0
   -0.1466   -1.1846    0.8066 H   0  0  0  0  0  0  0  0  0  0  0  0
    0.7434   -0.0896    0.0634 H   0  0  0  0  0  0  0  0  0  0  0  0
   -0.2187   -1.4738   -0.9740 H   0  0  0  0  0  0  0  0  0  0  0  0
  1  2  1  0  0  0  0
  1  3  1  0  0  0  0
  1  5  1  0  0  0  0
  2  6  1  0  0  0  0
  2  8  1  0  0  0  0
  4  1  1  0  0  0  0
  6 10  1  0  0  0  0
  7  2  1  0  0  0  0
  9 13  1  0  0  0  0
  9  6  1  0  0  0  0
  9 12  1  0  0  0  0
 11  6  1  0  0  0  0
 14  9  1  0  0  0  0
M  END
$$$$
