butane_opt
 OpenBabel08242015413D

 14 13  0  0  0  0  0  0  0  0999 V2000
   -3.9771    0.2834   -0.0182 C   0  0  0  0  0  0  0  0  0  0  0  0
   -2.6921   -0.6303    0.0458 C   0  0  0  0  0  0  0  0  0  0  0  0
   -4.8756   -0.3060    0.2406 H   0  0  0  0  0  0  0  0  0  0  0  0
   -4.1141    1.1008   -1.0110 H   0  0  0  0  0  0  0  0  0  0  0  0
   -3.8995    0.7525    0.6933 H   0  0  0  0  0  0  0  0  0  0  0  0
   -1.3764    0.1565    0.0582 C   0  0  0  0  0  0  0  0  0  0  0  0
   -2.7390   -1.2132   -0.7283 H   0  0  0  0  0  0  0  0  0  0  0  0
   -2.6941   -1.2775    0.9207 H   0  0  0  0  0  0  0  0  0  0  0  0
   -0.1672   -0.6795    0.0116 C   0  0  0  0  0  0  0  0  0  0  0  0
   -1.3242    0.9424    0.9911 H   0  0  0  0  0  0  0  0  0  0  0  0
   -1.3337    0.6847   -0.7686 H   0  0  0  0  0  0  0  0  0  0  0  0
   -0.0857   -1.1995    0.8442 H   0  0  0  0  0  0  0  0  0  0  0  0
    0.7925   -0.0791   -0.0618 H   0  0  0  0  0  0  0  0  0  0  0  0
   -0.2055   -1.4279   -0.8895 H   0  0  0  0  0  0  0  0  0  0  0  0
  1  2  1  0  0  0  0
  1  3  1  0  0  0  0
  1  5  1  0  0  0  0
  2  6  1  0  0  0  0
  2  8  1  0  0  0  0
  4  1  1  0  0  0  0
  6 10  1  0  0  0  0
  7  2  1  0  0  0  0
  9  6  1  0  0  0  0
  9 12  1  0  0  0  0
 11  6  1  0  0  0  0
 13  9  1  0  0  0  0
 14  9  1  0  0  0  0
M  END
$$$$
