14
butane_opt
C  -3.953023   0.271565   0.028926
C  -2.694064  -0.633028   0.016593
H  -4.823754  -0.272310   0.000617
H  -3.995687   0.846670  -0.842675
H  -4.022249   0.983584   0.918990
C  -1.402478   0.178626   0.013291
H  -2.717934  -1.308568  -0.818424
H  -2.702790  -1.263221   0.898477
C  -0.161374  -0.692665   0.043691
H  -1.364280   0.854406   0.860603
H  -1.374302   0.856741  -0.932820
H  -0.067930  -1.340227   0.975024
H   0.779319  -0.041832  -0.069684
H  -0.209910  -1.273063  -0.765411
