14
butane_opt
C  -3.950293   0.288870  -0.024865
C  -2.701595  -0.624725   0.108900
H  -4.850309  -0.349014   0.077250
H  -3.850448   0.932961  -0.966927
H  -3.969195   0.880256   0.748935
C  -1.387880   0.149336   0.031830
H  -2.641347  -1.260503  -0.737097
H  -2.700647  -1.257218   0.970159
C  -0.183061  -0.678775  -0.002570
H  -1.297252   0.845411   0.926156
H  -1.476789   0.812019  -0.893072
H  -0.211026  -1.072859   0.748475
H   0.760313  -0.077734   0.195127
H  -0.131147  -1.540255  -0.998127
