14
butane_opt
C  -3.916938   0.253648  -0.000490
C  -2.708679  -0.587258   0.087054
H  -4.909701  -0.445161  -0.153859
H  -3.837000   0.789245  -0.874526
H  -4.023175   0.985312   0.863121
C  -1.406728   0.203576   0.022774
H  -2.685001  -1.224439  -0.765387
H  -2.672868  -1.265932   0.973924
C  -0.176740  -0.717675   0.000330
H  -1.411708   0.903549   0.860360
H  -1.398037   0.777792  -0.810853
H  -0.198690  -1.328090   0.898099
H   0.758157  -0.118716  -0.030865
H  -0.114304  -1.387922  -0.839583
