butane_opt
 OpenBabel08242015413D

 14 13  0  0  0  0  0  0  0  0999 V2000
   -3.9531    0.2679    0.0300 C   0  0  0  0  0  0  0  0  0  0  0  0
   -2.6762   -0.6227   -0.0096 C   0  0  0  0  0  0  0  0  0  0  0  0
   -4.7936   -0.2674    0.3648 H   0  0  0  0  0  0  0  0  0  0  0  0
   -4.1466    0.9812   -0.9080 H   0  0  0  0  0  0  0  0  0  0  0  0
   -3.7531    0.8259    0.8136 H   0  0  0  0  0  0  0  0  0  0  0  0
   -1.4101    0.1674   -0.0004 C   0  0  0  0  0  0  0  0  0  0  0  0
   -2.6709   -1.3518   -0.8856 H   0  0  0  0  0  0  0  0  0  0  0  0
   -2.6907   -1.2403    0.8874 H   0  0  0  0  0  0  0  0  0  0  0  0
   -0.1861   -0.6711    0.0567 C   0  0  0  0  0  0  0  0  0  0  0  0
   -1.4100    0.9256    0.8770 H   0  0  0  0  0  0  0  0  0  0  0  0
   -1.3145    0.7848   -0.8558 H   0  0  0  0  0  0  0  0  0  0  0  0
   -0.2150   -1.3416    0.9849 H   0  0  0  0  0  0  0  0  0  0  0  0
    0.7529   -0.1054    0.0328 H   0  0  0  0  0  0  0  0  0  0  0  0
   -0.0891   -1.3679   -0.8075 H   0  0  0  0  0  0  0  0  0  0  0  0
  1  3  1  0  0  0  0
  1  5  1  0  0  0  0
  2  6  1  0  0  0  0
  2  1  1  0  0  0  0
  2  8  1  0  0  0  0
  4  1  1  0  0  0  0
  6  9  1  0  0  0  0
  6 10  1  0  0  0  0
  7  2  1  0  0  0  0
  9 12  1  0  0  0  0
 11  6  1  0  0  0  0
 13  9  1  0  0  0  0
 14  9  1  0  0  0  0
M  END
$$$$
