14
butane_opt
C  -3.943977   0.246990   0.056263
C  -2.725685  -0.587387   0.001329
H  -4.919015  -0.406122  -0.016281
H  -3.916401   0.764235  -0.774921
H  -3.940735   1.101733   1.044780
C  -1.401725   0.193341  -0.052102
H  -2.724732  -1.256242  -0.818610
H  -2.726304  -1.278892   0.897541
C  -0.149828  -0.706912   0.077641
H  -1.462120   0.875500   0.808369
H  -1.327754   0.855149  -0.961811
H  -0.054909  -1.358380   0.977671
H   0.751476  -0.130630   0.026801
H  -0.047922  -1.392805  -0.726128
