butane_opt
 OpenBabel08242015413D

 14 13  0  0  0  0  0  0  0  0999 V2000
   -3.9373    0.2571    0.0596 C   0  0  0  0  0  0  0  0  0  0  0  0
   -2.7306   -0.6122   -0.0291 C   0  0  0  0  0  0  0  0  0  0  0  0
   -4.8653   -0.3370    0.0966 H   0  0  0  0  0  0  0  0  0  0  0  0
   -3.9871    0.7709   -0.7686 H   0  0  0  0  0  0  0  0  0  0  0  0
   -3.9629    1.0152    0.9530 H   0  0  0  0  0  0  0  0  0  0  0  0
   -1.4021    0.2227   -0.0002 C   0  0  0  0  0  0  0  0  0  0  0  0
   -2.8068   -1.3797   -0.9598 H   0  0  0  0  0  0  0  0  0  0  0  0
   -2.6814   -1.2127    0.7796 H   0  0  0  0  0  0  0  0  0  0  0  0
   -0.1347   -0.7144    0.0784 C   0  0  0  0  0  0  0  0  0  0  0  0
   -1.4843    0.7609    0.7637 H   0  0  0  0  0  0  0  0  0  0  0  0
   -1.3372    0.9105   -0.9476 H   0  0  0  0  0  0  0  0  0  0  0  0
    0.0021   -1.4975    1.0605 H   0  0  0  0  0  0  0  0  0  0  0  0
    0.7415   -0.1438   -0.1914 H   0  0  0  0  0  0  0  0  0  0  0  0
   -0.1814   -1.1854   -0.6209 H   0  0  0  0  0  0  0  0  0  0  0  0
  1  3  1  0  0  0  0
  1  5  1  0  0  0  0
  2  6  1  0  0  0  0
  2  1  1  0  0  0  0
  2  8  1  0  0  0  0
  4  1  1  0  0  0  0
  6  9  1  0  0  0  0
  6 10  1  0  0  0  0
  7  2  1  0  0  0  0
  9 12  1  0  0  0  0
 11  6  1  0  0  0  0
 13  9  1  0  0  0  0
 14  9  1  0  0  0  0
M  END
$$$$
