butane_opt
 OpenBabel08242015413D

 14 13  0  0  0  0  0  0  0  0999 V2000
   -3.9603    0.2772    0.0428 C   0  0  0  0  0  0  0  0  0  0  0  0
   -2.7108   -0.6284    0.0162 C   0  0  0  0  0  0  0  0  0  0  0  0
   -4.8613   -0.3083    0.0190 H   0  0  0  0  0  0  0  0  0  0  0  0
   -3.9679    0.7966   -0.7996 H   0  0  0  0  0  0  0  0  0  0  0  0
   -3.9843    1.0529    0.9866 H   0  0  0  0  0  0  0  0  0  0  0  0
   -1.3906    0.1725   -0.0257 C   0  0  0  0  0  0  0  0  0  0  0  0
   -2.7184   -1.3401   -0.8584 H   0  0  0  0  0  0  0  0  0  0  0  0
   -2.6788   -1.2479    0.8946 H   0  0  0  0  0  0  0  0  0  0  0  0
   -0.1528   -0.6893    0.0621 C   0  0  0  0  0  0  0  0  0  0  0  0
   -1.4290    0.8021    0.7880 H   0  0  0  0  0  0  0  0  0  0  0  0
   -1.3099    0.8788   -0.9586 H   0  0  0  0  0  0  0  0  0  0  0  0
   -0.1381   -1.2895    0.9558 H   0  0  0  0  0  0  0  0  0  0  0  0
    0.7595   -0.0903    0.0446 H   0  0  0  0  0  0  0  0  0  0  0  0
   -0.1250   -1.3091   -0.7652 H   0  0  0  0  0  0  0  0  0  0  0  0
  1  5  1  0  0  0  0
  2  1  1  0  0  0  0
  2  8  1  0  0  0  0
  3  1  1  0  0  0  0
  4  1  1  0  0  0  0
  6  2  1  0  0  0  0
  6  9  1  0  0  0  0
  6 10  1  0  0  0  0
  7  2  1  0  0  0  0
  9 12  1  0  0  0  0
 11  6  1  0  0  0  0
 13  9  1  0  0  0  0
 14  9  1  0  0  0  0
M  END
$$$$
