14
butane_opt
C  -3.932297   0.296505   0.001027
C  -2.683931  -0.658085   0.048028
H  -4.795757  -0.323342   0.059245
H  -3.983382   0.953741  -0.906946
H  -4.058397   0.882739   0.770212
C  -1.407933   0.166170   0.059410
H  -2.659216  -1.357947  -0.821552
H  -2.804808  -1.178734   0.876610
C  -0.171085  -0.675322   0.007200
H  -1.337330   0.843403   0.960974
H  -1.442905   0.794602  -0.827330
H  -0.151984  -1.380097   0.933461
H   0.759188  -0.064072  -0.192333
H  -0.216583  -1.181065  -0.787189
