butane_opt
 OpenBabel08242015413D

 14 13  0  0  0  0  0  0  0  0999 V2000
   -3.9404    0.2768    0.0457 C   0  0  0  0  0  0  0  0  0  0  0  0
   -2.7026   -0.6231    0.0184 C   0  0  0  0  0  0  0  0  0  0  0  0
   -4.8201   -0.2739   -0.1416 H   0  0  0  0  0  0  0  0  0  0  0  0
   -3.9204    0.7173   -0.7266 H   0  0  0  0  0  0  0  0  0  0  0  0
   -4.0774    1.1259    1.0532 H   0  0  0  0  0  0  0  0  0  0  0  0
   -1.3907    0.1688   -0.0368 C   0  0  0  0  0  0  0  0  0  0  0  0
   -2.6955   -1.3272   -0.8485 H   0  0  0  0  0  0  0  0  0  0  0  0
   -2.6700   -1.2769    0.9311 H   0  0  0  0  0  0  0  0  0  0  0  0
   -0.1791   -0.6948    0.0747 C   0  0  0  0  0  0  0  0  0  0  0  0
   -1.4221    0.7866    0.8202 H   0  0  0  0  0  0  0  0  0  0  0  0
   -1.3566    0.8493   -0.9834 H   0  0  0  0  0  0  0  0  0  0  0  0
   -0.1552   -1.3191    0.9510 H   0  0  0  0  0  0  0  0  0  0  0  0
    0.8478   -0.0084   -0.0822 H   0  0  0  0  0  0  0  0  0  0  0  0
   -0.2086   -1.2586   -0.7353 H   0  0  0  0  0  0  0  0  0  0  0  0
  1  5  1  0  0  0  0
  2  1  1  0  0  0  0
  2  8  1  0  0  0  0
  3  1  1  0  0  0  0
  4  1  1  0  0  0  0
  6  2  1  0  0  0  0
  6  9  1  0  0  0  0
  6 10  1  0  0  0  0
  7  2  1  0  0  0  0
  9 12  1  0  0  0  0
 11  6  1  0  0  0  0
 13  9  1  0  0  0  0
 14  9  1  0  0  0  0
M  END
$$$$
