butane_opt
 OpenBabel08242015413D

 14 13  0  0  0  0  0  0  0  0999 V2000
   -3.9567    0.2722   -0.0027 C   0  0  0  0  0  0  0  0  0  0  0  0
   -2.7037   -0.6348    0.0521 C   0  0  0  0  0  0  0  0  0  0  0  0
   -4.8479   -0.2968    0.2085 H   0  0  0  0  0  0  0  0  0  0  0  0
   -4.0158    1.1286   -1.0448 H   0  0  0  0  0  0  0  0  0  0  0  0
   -3.9747    0.7173    0.7101 H   0  0  0  0  0  0  0  0  0  0  0  0
   -1.3838    0.1918    0.0502 C   0  0  0  0  0  0  0  0  0  0  0  0
   -2.6760   -1.2603   -0.7749 H   0  0  0  0  0  0  0  0  0  0  0  0
   -2.7386   -1.3228    0.9551 H   0  0  0  0  0  0  0  0  0  0  0  0
   -0.1755   -0.6989    0.0065 C   0  0  0  0  0  0  0  0  0  0  0  0
   -1.3189    0.9767    0.9619 H   0  0  0  0  0  0  0  0  0  0  0  0
   -1.3472    0.7732   -0.7962 H   0  0  0  0  0  0  0  0  0  0  0  0
   -0.1311   -1.1724    0.7403 H   0  0  0  0  0  0  0  0  0  0  0  0
    0.7497   -0.1106    0.0582 H   0  0  0  0  0  0  0  0  0  0  0  0
   -0.0848   -1.4610   -0.8871 H   0  0  0  0  0  0  0  0  0  0  0  0
  1  2  1  0  0  0  0
  1  3  1  0  0  0  0
  1  5  1  0  0  0  0
  2  8  1  0  0  0  0
  4  1  1  0  0  0  0
  6  2  1  0  0  0  0
  6 10  1  0  0  0  0
  7  2  1  0  0  0  0
  9  6  1  0  0  0  0
  9 13  1  0  0  0  0
  9 12  1  0  0  0  0
 11  6  1  0  0  0  0
 14  9  1  0  0  0  0
M  END
$$$$
