14
butane_opt
C  -3.956670   0.272173  -0.002655
C  -2.703662  -0.634782   0.052088
H  -4.847886  -0.296838   0.208465
H  -4.015818   1.128638  -1.044803
H  -3.974654   0.717261   0.710109
C  -1.383840   0.191796   0.050211
H  -2.676040  -1.260341  -0.774863
H  -2.738643  -1.322800   0.955060
C  -0.175537  -0.698877   0.006485
H  -1.318851   0.976695   0.961862
H  -1.347174   0.773233  -0.796235
H  -0.131095  -1.172357   0.740346
H   0.749721  -0.110556   0.058207
H  -0.084778  -1.461025  -0.887080
