butane_opt
 OpenBabel08242015413D

 14 13  0  0  0  0  0  0  0  0999 V2000
   -3.9430    0.2824    0.0026 C   0  0  0  0  0  0  0  0  0  0  0  0
   -2.6812   -0.6435    0.0357 C   0  0  0  0  0  0  0  0  0  0  0  0
   -4.7956   -0.2588    0.2887 H   0  0  0  0  0  0  0  0  0  0  0  0
   -4.1051    1.0602   -0.9966 H   0  0  0  0  0  0  0  0  0  0  0  0
   -3.8858    0.7591    0.7041 H   0  0  0  0  0  0  0  0  0  0  0  0
   -1.4080    0.1562    0.0364 C   0  0  0  0  0  0  0  0  0  0  0  0
   -2.7384   -1.2718   -0.8145 H   0  0  0  0  0  0  0  0  0  0  0  0
   -2.6700   -1.2312    0.8901 H   0  0  0  0  0  0  0  0  0  0  0  0
   -0.1654   -0.6675    0.0262 C   0  0  0  0  0  0  0  0  0  0  0  0
   -1.4419    0.8534    0.9348 H   0  0  0  0  0  0  0  0  0  0  0  0
   -1.3500    0.7556   -0.8372 H   0  0  0  0  0  0  0  0  0  0  0  0
   -0.1157   -1.1869    0.8680 H   0  0  0  0  0  0  0  0  0  0  0  0
    0.7215   -0.0840    0.0924 H   0  0  0  0  0  0  0  0  0  0  0  0
   -0.2814   -1.3936   -0.9267 H   0  0  0  0  0  0  0  0  0  0  0  0
  1  2  1  0  0  0  0
  1  3  1  0  0  0  0
  1  5  1  0  0  0  0
  2  6  1  0  0  0  0
  2  8  1  0  0  0  0
  4  1  1  0  0  0  0
  6 10  1  0  0  0  0
  7  2  1  0  0  0  0
  9  6  1  0  0  0  0
  9 13  1  0  0  0  0
  9 12  1  0  0  0  0
 11  6  1  0  0  0  0
 14  9  1  0  0  0  0
M  END
$$$$
