butane_opt
 OpenBabel08242015413D

 14 13  0  0  0  0  0  0  0  0999 V2000
   -3.9482    0.2808    0.0381 C   0  0  0  0  0  0  0  0  0  0  0  0
   -2.7077   -0.6481    0.0366 C   0  0  0  0  0  0  0  0  0  0  0  0
   -4.7946   -0.2371   -0.0840 H   0  0  0  0  0  0  0  0  0  0  0  0
   -4.0101    0.7500   -0.7091 H   0  0  0  0  0  0  0  0  0  0  0  0
   -4.0761    1.0764    0.9457 H   0  0  0  0  0  0  0  0  0  0  0  0
   -1.3995    0.1687   -0.0364 C   0  0  0  0  0  0  0  0  0  0  0  0
   -2.7090   -1.3477   -0.8480 H   0  0  0  0  0  0  0  0  0  0  0  0
   -2.6780   -1.2313    0.8990 H   0  0  0  0  0  0  0  0  0  0  0  0
   -0.1469   -0.6681    0.0416 C   0  0  0  0  0  0  0  0  0  0  0  0
   -1.4309    0.8471    0.8218 H   0  0  0  0  0  0  0  0  0  0  0  0
   -1.3917    0.8004   -0.8935 H   0  0  0  0  0  0  0  0  0  0  0  0
   -0.1866   -1.3990    1.0377 H   0  0  0  0  0  0  0  0  0  0  0  0
    0.7709   -0.0698    0.0629 H   0  0  0  0  0  0  0  0  0  0  0  0
   -0.1027   -1.2593   -0.7284 H   0  0  0  0  0  0  0  0  0  0  0  0
  1  5  1  0  0  0  0
  2  1  1  0  0  0  0
  2  8  1  0  0  0  0
  3  1  1  0  0  0  0
  4  1  1  0  0  0  0
  6  2  1  0  0  0  0
  6  9  1  0  0  0  0
  6 10  1  0  0  0  0
  7  2  1  0  0  0  0
  9 13  1  0  0  0  0
  9 12  1  0  0  0  0
 11  6  1  0  0  0  0
 14  9  1  0  0  0  0
M  END
$$$$
