14
butane_opt
C  -3.956589   0.249910   0.072622
C  -2.706692  -0.607814  -0.011579
H  -4.837899  -0.301191   0.086845
H  -4.036120   0.828278  -0.793656
H  -3.869303   0.994024   1.057810
C  -1.401017   0.216863  -0.080529
H  -2.862896  -1.295039  -0.845835
H  -2.662673  -1.275546   0.875110
C  -0.144927  -0.710583   0.105467
H  -1.451071   0.791663   0.675178
H  -1.323650   0.854432  -1.007545
H  -0.251847  -1.194459   0.938644
H   0.765643  -0.113865   0.245380
H   0.017164  -1.532841  -0.845180
