14
butane_opt
C  -3.953206   0.239708  -0.021111
C  -2.716485  -0.584106   0.064627
H  -4.886045  -0.352604   0.249476
H  -3.999036   1.048124  -1.047676
H  -3.980476   0.726424   0.667348
C  -1.395741   0.200706   0.068584
H  -2.721681  -1.303332  -0.802843
H  -2.811637  -1.181159   0.976737
C  -0.119346  -0.709453   0.001820
H  -1.456146   0.920750   0.934615
H  -1.445457   0.773073  -0.774488
H  -0.017783  -1.239398   0.838616
H   0.745290  -0.168124  -0.051951
H  -0.216813  -1.465447  -0.938586
