butane_opt
 OpenBabel08242015413D

 14 13  0  0  0  0  0  0  0  0999 V2000
   -3.9499    0.2909    0.0516 C   0  0  0  0  0  0  0  0  0  0  0  0
   -2.6946   -0.6303    0.0126 C   0  0  0  0  0  0  0  0  0  0  0  0
   -4.8740   -0.3405    0.1414 H   0  0  0  0  0  0  0  0  0  0  0  0
   -3.9908    0.9472   -0.8453 H   0  0  0  0  0  0  0  0  0  0  0  0
   -3.9884    0.9569    0.8836 H   0  0  0  0  0  0  0  0  0  0  0  0
   -1.3989    0.1581   -0.0439 C   0  0  0  0  0  0  0  0  0  0  0  0
   -2.6688   -1.3204   -0.8050 H   0  0  0  0  0  0  0  0  0  0  0  0
   -2.6931   -1.3226    0.9316 H   0  0  0  0  0  0  0  0  0  0  0  0
   -0.1713   -0.6766    0.0540 C   0  0  0  0  0  0  0  0  0  0  0  0
   -1.3393    0.8277    0.7932 H   0  0  0  0  0  0  0  0  0  0  0  0
   -1.3165    0.7221   -0.8934 H   0  0  0  0  0  0  0  0  0  0  0  0
   -0.3117   -1.1823    0.9389 H   0  0  0  0  0  0  0  0  0  0  0  0
    0.7719   -0.0203    0.2567 H   0  0  0  0  0  0  0  0  0  0  0  0
   -0.0435   -1.4385   -0.8592 H   0  0  0  0  0  0  0  0  0  0  0  0
  1  3  1  0  0  0  0
  1  5  1  0  0  0  0
  2  1  1  0  0  0  0
  2  8  1  0  0  0  0
  4  1  1  0  0  0  0
  6  2  1  0  0  0  0
  6  9  1  0  0  0  0
  6 10  1  0  0  0  0
  7  2  1  0  0  0  0
  9 13  1  0  0  0  0
  9 12  1  0  0  0  0
 11  6  1  0  0  0  0
 14  9  1  0  0  0  0
M  END
$$$$
