14
butane_opt
C  -3.943144   0.273524   0.021473
C  -2.670709  -0.627227   0.041950
H  -4.866985  -0.340320   0.126710
H  -3.988128   0.974307  -0.934667
H  -3.890944   0.876334   0.830574
C  -1.408395   0.178945  -0.001420
H  -2.683429  -1.328011  -0.816176
H  -2.677434  -1.244165   0.939176
C  -0.188580  -0.685154   0.047853
H  -1.359795   0.820722   0.838791
H  -1.373120   0.837063  -0.945705
H  -0.189177  -1.156022   0.831518
H   0.767737  -0.110066   0.188588
H  -0.229811  -1.481103  -0.949961
