butane_opt
 OpenBabel08242015413D

 14 13  0  0  0  0  0  0  0  0999 V2000
   -3.9478    0.2479    0.0282 C   0  0  0  0  0  0  0  0  0  0  0  0
   -2.6931   -0.6087    0.0620 C   0  0  0  0  0  0  0  0  0  0  0  0
   -4.9319   -0.3873   -0.1873 H   0  0  0  0  0  0  0  0  0  0  0  0
   -3.8355    0.6624   -0.7231 H   0  0  0  0  0  0  0  0  0  0  0  0
   -4.1235    1.1191    0.9909 H   0  0  0  0  0  0  0  0  0  0  0  0
   -1.4103    0.2185   -0.0276 C   0  0  0  0  0  0  0  0  0  0  0  0
   -2.7693   -1.2805   -0.7939 H   0  0  0  0  0  0  0  0  0  0  0  0
   -2.7045   -1.2016    0.8950 H   0  0  0  0  0  0  0  0  0  0  0  0
   -0.1475   -0.7136    0.0430 C   0  0  0  0  0  0  0  0  0  0  0  0
   -1.4285    0.8825    0.7889 H   0  0  0  0  0  0  0  0  0  0  0  0
   -1.3469    0.8233   -0.9405 H   0  0  0  0  0  0  0  0  0  0  0  0
   -0.1164   -1.3649    0.9665 H   0  0  0  0  0  0  0  0  0  0  0  0
    0.7057   -0.2096   -0.0121 H   0  0  0  0  0  0  0  0  0  0  0  0
   -0.0674   -1.2693   -0.7825 H   0  0  0  0  0  0  0  0  0  0  0  0
  1  2  1  0  0  0  0
  1  5  1  0  0  0  0
  2  8  1  0  0  0  0
  3  1  1  0  0  0  0
  4  1  1  0  0  0  0
  6  9  1  0  0  0  0
  6  2  1  0  0  0  0
  6 10  1  0  0  0  0
  7  2  1  0  0  0  0
  9 12  1  0  0  0  0
 11  6  1  0  0  0  0
 13  9  1  0  0  0  0
 14  9  1  0  0  0  0
M  END
$$$$
