14
butane_opt
C  -3.944685   0.246688   0.076612
C  -2.712125  -0.605323  -0.004853
H  -4.818325  -0.321327   0.088212
H  -4.007118   0.796683  -0.748111
H  -3.944675   0.927291   0.928609
C  -1.423277   0.214889  -0.055067
H  -2.780646  -1.374625  -0.932079
H  -2.698214  -1.138394   0.811996
C  -0.132855  -0.702275   0.075895
H  -1.438679   0.797980   0.715261
H  -1.336784   0.913198  -0.977991
H  -0.256325  -1.343188   1.020978
H   0.737011  -0.187698   0.143996
H   0.080701  -1.396074  -0.723853
