butane_opt
 OpenBabel08242015413D

 14 13  0  0  0  0  0  0  0  0999 V2000
   -3.9325    0.2734    0.0088 C   0  0  0  0  0  0  0  0  0  0  0  0
   -2.6857   -0.6277    0.0392 C   0  0  0  0  0  0  0  0  0  0  0  0
   -4.7870   -0.2322    0.1709 H   0  0  0  0  0  0  0  0  0  0  0  0
   -4.0206    0.9719   -1.0049 H   0  0  0  0  0  0  0  0  0  0  0  0
   -4.0027    0.8918    0.8150 H   0  0  0  0  0  0  0  0  0  0  0  0
   -1.3931    0.1583    0.0228 C   0  0  0  0  0  0  0  0  0  0  0  0
   -2.7857   -1.3405   -0.8224 H   0  0  0  0  0  0  0  0  0  0  0  0
   -2.6251   -1.2769    0.9459 H   0  0  0  0  0  0  0  0  0  0  0  0
   -0.1953   -0.6777    0.0225 C   0  0  0  0  0  0  0  0  0  0  0  0
   -1.3828    0.9446    0.9199 H   0  0  0  0  0  0  0  0  0  0  0  0
   -1.4150    0.7501   -0.8179 H   0  0  0  0  0  0  0  0  0  0  0  0
   -0.1811   -1.3168    0.9447 H   0  0  0  0  0  0  0  0  0  0  0  0
    0.7937    0.0098    0.0127 H   0  0  0  0  0  0  0  0  0  0  0  0
   -0.1521   -1.3701   -0.8550 H   0  0  0  0  0  0  0  0  0  0  0  0
  1  2  1  0  0  0  0
  1  3  1  0  0  0  0
  1  5  1  0  0  0  0
  2  8  1  0  0  0  0
  4  1  1  0  0  0  0
  6  2  1  0  0  0  0
  6 10  1  0  0  0  0
  7  2  1  0  0  0  0
  9  6  1  0  0  0  0
  9 12  1  0  0  0  0
 11  6  1  0  0  0  0
 13  9  1  0  0  0  0
 14  9  1  0  0  0  0
M  END
$$$$
