14
butane_opt
C  -3.953742   0.249358  -0.035937
C  -2.710060  -0.607140   0.074151
H  -4.825560  -0.358272   0.007829
H  -3.891763   0.873561  -0.963332
H  -4.037550   0.873066   0.755019
C  -1.416221   0.214360   0.097967
H  -2.770249  -1.196471  -0.759423
H  -2.772655  -1.283878   0.996865
C  -0.129126  -0.698512  -0.019641
H  -1.357416   0.911034   0.938236
H  -1.417876   0.790219  -0.736431
H   0.075081  -1.415056   0.919883
H   0.697661  -0.196518  -0.236401
H  -0.210393  -1.370890  -0.878557
