butane_opt
 OpenBabel08242015413D

 14 13  0  0  0  0  0  0  0  0999 V2000
   -3.9589    0.2820    0.0662 C   0  0  0  0  0  0  0  0  0  0  0  0
   -2.6840   -0.6194   -0.0541 C   0  0  0  0  0  0  0  0  0  0  0  0
   -4.9135   -0.3321    0.2998 H   0  0  0  0  0  0  0  0  0  0  0  0
   -4.2299    0.9282   -0.7711 H   0  0  0  0  0  0  0  0  0  0  0  0
   -3.7116    0.8677    0.8934 H   0  0  0  0  0  0  0  0  0  0  0  0
   -1.4042    0.1548   -0.0408 C   0  0  0  0  0  0  0  0  0  0  0  0
   -2.7641   -1.3775   -0.9515 H   0  0  0  0  0  0  0  0  0  0  0  0
   -2.6214   -1.2193    0.8587 H   0  0  0  0  0  0  0  0  0  0  0  0
   -0.1585   -0.6713    0.0939 C   0  0  0  0  0  0  0  0  0  0  0  0
   -1.3971    0.8540    0.8146 H   0  0  0  0  0  0  0  0  0  0  0  0
   -1.3245    0.8109   -0.9266 H   0  0  0  0  0  0  0  0  0  0  0  0
   -0.2269   -1.3932    1.0707 H   0  0  0  0  0  0  0  0  0  0  0  0
    0.7412   -0.0818    0.0725 H   0  0  0  0  0  0  0  0  0  0  0  0
   -0.1117   -1.2852   -0.7150 H   0  0  0  0  0  0  0  0  0  0  0  0
  1  3  1  0  0  0  0
  1  5  1  0  0  0  0
  2  6  1  0  0  0  0
  2  1  1  0  0  0  0
  2  8  1  0  0  0  0
  4  1  1  0  0  0  0
  6  9  1  0  0  0  0
  6 10  1  0  0  0  0
  7  2  1  0  0  0  0
  9 12  1  0  0  0  0
 11  6  1  0  0  0  0
 13  9  1  0  0  0  0
 14  9  1  0  0  0  0
M  END
$$$$
