butane_opt
 OpenBabel08242015413D

 14 13  0  0  0  0  0  0  0  0999 V2000
   -3.9639    0.2710   -0.0225 C   0  0  0  0  0  0  0  0  0  0  0  0
   -2.6942   -0.6449    0.0649 C   0  0  0  0  0  0  0  0  0  0  0  0
   -4.8810   -0.3415    0.2113 H   0  0  0  0  0  0  0  0  0  0  0  0
   -3.9842    1.1547   -1.0916 H   0  0  0  0  0  0  0  0  0  0  0  0
   -3.9953    0.7903    0.7117 H   0  0  0  0  0  0  0  0  0  0  0  0
   -1.3908    0.1932    0.0783 C   0  0  0  0  0  0  0  0  0  0  0  0
   -2.7088   -1.3483   -0.7940 H   0  0  0  0  0  0  0  0  0  0  0  0
   -2.7156   -1.2849    0.9269 H   0  0  0  0  0  0  0  0  0  0  0  0
   -0.1606   -0.6816   -0.0118 C   0  0  0  0  0  0  0  0  0  0  0  0
   -1.3342    0.9482    0.9914 H   0  0  0  0  0  0  0  0  0  0  0  0
   -1.4816    0.7801   -0.7717 H   0  0  0  0  0  0  0  0  0  0  0  0
   -0.0187   -1.2601    0.8601 H   0  0  0  0  0  0  0  0  0  0  0  0
    0.7551   -0.1318   -0.0593 H   0  0  0  0  0  0  0  0  0  0  0  0
   -0.1520   -1.4155   -0.8706 H   0  0  0  0  0  0  0  0  0  0  0  0
  1  2  1  0  0  0  0
  1  3  1  0  0  0  0
  1  5  1  0  0  0  0
  2  6  1  0  0  0  0
  2  8  1  0  0  0  0
  4  1  1  0  0  0  0
  6 10  1  0  0  0  0
  7  2  1  0  0  0  0
  9  6  1  0  0  0  0
  9 12  1  0  0  0  0
 11  6  1  0  0  0  0
 13  9  1  0  0  0  0
 14  9  1  0  0  0  0
M  END
$$$$
