butane_opt
 OpenBabel08242015413D

 14 13  0  0  0  0  0  0  0  0999 V2000
   -3.9295    0.2531   -0.0500 C   0  0  0  0  0  0  0  0  0  0  0  0
   -2.6974   -0.6060    0.1199 C   0  0  0  0  0  0  0  0  0  0  0  0
   -4.8139   -0.3469   -0.2035 H   0  0  0  0  0  0  0  0  0  0  0  0
   -3.8012    0.7680   -0.8621 H   0  0  0  0  0  0  0  0  0  0  0  0
   -3.9992    1.0258    0.8794 H   0  0  0  0  0  0  0  0  0  0  0  0
   -1.4205    0.2041    0.0589 C   0  0  0  0  0  0  0  0  0  0  0  0
   -2.6676   -1.2603   -0.6817 H   0  0  0  0  0  0  0  0  0  0  0  0
   -2.7785   -1.3637    1.0999 H   0  0  0  0  0  0  0  0  0  0  0  0
   -0.1619   -0.7005   -0.0147 C   0  0  0  0  0  0  0  0  0  0  0  0
   -1.3749    0.8257    0.9041 H   0  0  0  0  0  0  0  0  0  0  0  0
   -1.5532    0.8672   -0.8132 H   0  0  0  0  0  0  0  0  0  0  0  0
   -0.0803   -1.2000    0.8027 H   0  0  0  0  0  0  0  0  0  0  0  0
    0.7043   -0.1372   -0.0788 H   0  0  0  0  0  0  0  0  0  0  0  0
   -0.1548   -1.4581   -0.9807 H   0  0  0  0  0  0  0  0  0  0  0  0
  1  2  1  0  0  0  0
  1  5  1  0  0  0  0
  2  8  1  0  0  0  0
  3  1  1  0  0  0  0
  4  1  1  0  0  0  0
  6  2  1  0  0  0  0
  6 10  1  0  0  0  0
  7  2  1  0  0  0  0
  9  6  1  0  0  0  0
  9 12  1  0  0  0  0
 11  6  1  0  0  0  0
 13  9  1  0  0  0  0
 14  9  1  0  0  0  0
M  END
$$$$
