14
butane_opt
C  -3.924093   0.274252  -0.001429
C  -2.675484  -0.630687   0.056701
H  -4.784497  -0.329809   0.098111
H  -4.050165   0.922306  -0.922867
H  -3.985578   0.918683   0.797870
C  -1.417564   0.168326   0.023628
H  -2.647762  -1.192886  -0.711045
H  -2.755892  -1.307158   1.026498
C  -0.185538  -0.674869   0.007580
H  -1.367323   0.815968   0.860372
H  -1.415479   0.787165  -0.851942
H  -0.213168  -1.176186   0.820655
H   0.771849  -0.040694   0.235227
H  -0.145959  -1.511306  -0.958698
