14
butane_opt
C  -3.941823   0.269846   0.007079
C  -2.688131  -0.617379   0.044354
H  -4.830573  -0.343872   0.116922
H  -3.946519   0.996496  -0.959888
H  -3.949988   0.831770   0.777727
C  -1.420966   0.165042   0.017349
H  -2.751877  -1.180655  -0.696165
H  -2.731408  -1.307230   0.977272
C  -0.163014  -0.684598   0.017732
H  -1.375687   0.889832   0.936816
H  -1.454353   0.767329  -0.808713
H  -0.197716  -1.154200   0.844326
H   0.810291  -0.033307   0.114281
H  -0.050576  -1.523817  -0.935682
