butane_opt
 OpenBabel08242015413D

 14 13  0  0  0  0  0  0  0  0999 V2000
   -3.9305    0.2774   -0.0319 C   0  0  0  0  0  0  0  0  0  0  0  0
   -2.6916   -0.6408    0.0787 C   0  0  0  0  0  0  0  0  0  0  0  0
   -4.8390   -0.3044    0.1732 H   0  0  0  0  0  0  0  0  0  0  0  0
   -3.9794    1.0273   -0.9920 H   0  0  0  0  0  0  0  0  0  0  0  0
   -4.0156    0.8156    0.7702 H   0  0  0  0  0  0  0  0  0  0  0  0
   -1.4256    0.1764    0.0585 C   0  0  0  0  0  0  0  0  0  0  0  0
   -2.6560   -1.1841   -0.6739 H   0  0  0  0  0  0  0  0  0  0  0  0
   -2.7064   -1.3164    0.9826 H   0  0  0  0  0  0  0  0  0  0  0  0
   -0.1696   -0.6779   -0.0099 C   0  0  0  0  0  0  0  0  0  0  0  0
   -1.3906    0.8564    0.9481 H   0  0  0  0  0  0  0  0  0  0  0  0
   -1.3261    0.7509   -0.8426 H   0  0  0  0  0  0  0  0  0  0  0  0
   -0.1416   -1.1283    0.7541 H   0  0  0  0  0  0  0  0  0  0  0  0
    0.8031   -0.0512    0.1263 H   0  0  0  0  0  0  0  0  0  0  0  0
   -0.1752   -1.5483   -0.9806 H   0  0  0  0  0  0  0  0  0  0  0  0
  1  2  1  0  0  0  0
  1  3  1  0  0  0  0
  1  5  1  0  0  0  0
  2  8  1  0  0  0  0
  4  1  1  0  0  0  0
  6  2  1  0  0  0  0
  6 10  1  0  0  0  0
  7  2  1  0  0  0  0
  9  6  1  0  0  0  0
  9 13  1  0  0  0  0
  9 12  1  0  0  0  0
 11  6  1  0  0  0  0
 14  9  1  0  0  0  0
M  END
$$$$
