14
butane_opt
C  -3.963210   0.274894   0.045048
C  -2.716234  -0.623302   0.025720
H  -4.868520  -0.302046  -0.210759
H  -3.998221   0.628192  -0.626964
H  -4.046352   1.158971   1.044106
C  -1.396298   0.172711  -0.046546
H  -2.731354  -1.333644  -0.845797
H  -2.609477  -1.264798   0.913201
C  -0.143591  -0.676231   0.060037
H  -1.321269   0.842788   0.772079
H  -1.375909   0.827116  -0.946677
H  -0.153372  -1.471312   1.071309
H   0.742378  -0.117251  -0.003683
H  -0.032535  -1.225473  -0.705009
