butane_opt
 OpenBabel08242015413D

 14 13  0  0  0  0  0  0  0  0999 V2000
   -3.9025    0.2600   -0.0165 C   0  0  0  0  0  0  0  0  0  0  0  0
   -2.7056   -0.5989    0.0615 C   0  0  0  0  0  0  0  0  0  0  0  0
   -4.8583   -0.3832    0.1803 H   0  0  0  0  0  0  0  0  0  0  0  0
   -3.9722    1.0728   -0.9986 H   0  0  0  0  0  0  0  0  0  0  0  0
   -3.9233    0.7122    0.7174 H   0  0  0  0  0  0  0  0  0  0  0  0
   -1.4155    0.1925    0.0668 C   0  0  0  0  0  0  0  0  0  0  0  0
   -2.7223   -1.3352   -0.8049 H   0  0  0  0  0  0  0  0  0  0  0  0
   -2.7561   -1.2295    0.9167 H   0  0  0  0  0  0  0  0  0  0  0  0
   -0.1713   -0.7025   -0.0073 C   0  0  0  0  0  0  0  0  0  0  0  0
   -1.3343    0.8754    0.9309 H   0  0  0  0  0  0  0  0  0  0  0  0
   -1.5287    0.7878   -0.7945 H   0  0  0  0  0  0  0  0  0  0  0  0
   -0.0698   -1.2622    0.8401 H   0  0  0  0  0  0  0  0  0  0  0  0
    0.6829   -0.1410    0.0517 H   0  0  0  0  0  0  0  0  0  0  0  0
   -0.1973   -1.3796   -0.8612 H   0  0  0  0  0  0  0  0  0  0  0  0
  1  2  1  0  0  0  0
  1  3  1  0  0  0  0
  1  5  1  0  0  0  0
  2  6  1  0  0  0  0
  2  8  1  0  0  0  0
  4  1  1  0  0  0  0
  6 10  1  0  0  0  0
  7  2  1  0  0  0  0
  9 13  1  0  0  0  0
  9  6  1  0  0  0  0
  9 12  1  0  0  0  0
 11  6  1  0  0  0  0
 14  9  1  0  0  0  0
M  END
$$$$
