14
butane_opt
C  -3.950676   0.280961  -0.005458
C  -2.684044  -0.624990   0.047902
H  -4.804904  -0.244011   0.240021
H  -4.026040   1.052713  -1.026988
H  -3.868268   0.755210   0.711560
C  -1.419216   0.140057   0.036337
H  -2.638809  -1.232044  -0.767749
H  -2.711348  -1.309216   0.970011
C  -0.168910  -0.670688   0.013683
H  -1.383834   0.923152   0.962956
H  -1.333210   0.680020  -0.750985
H  -0.132910  -1.175370   0.809105
H   0.776988  -0.002859   0.070283
H  -0.245184  -1.408500  -0.914135
