14
butane_opt
C  -3.930512   0.277390  -0.031926
C  -2.691557  -0.640822   0.078681
H  -4.838952  -0.304354   0.173152
H  -3.979398   1.027289  -0.991995
H  -4.015628   0.815612   0.770217
C  -1.425578   0.176429   0.058495
H  -2.656045  -1.184147  -0.673867
H  -2.706416  -1.316414   0.982629
C  -0.169603  -0.677898  -0.009867
H  -1.390639   0.856425   0.948114
H  -1.326098   0.750883  -0.842625
H  -0.141622  -1.128256   0.754111
H   0.803130  -0.051165   0.126283
H  -0.175170  -1.548273  -0.980583
