14
butane_opt
C  -3.904459   0.251650   0.050060
C  -2.714644  -0.603555   0.000708
H  -4.846261  -0.329647   0.026865
H  -3.862101   0.788155  -0.840969
H  -3.916681   0.901640   0.886660
C  -1.414480   0.213829   0.015141
H  -2.787525  -1.342669  -0.926067
H  -2.703004  -1.097765   0.779007
C  -0.173996  -0.720721   0.053413
H  -1.553009   0.849436   0.870315
H  -1.404198   0.876772  -0.914694
H  -0.064032  -1.525409   1.057022
H   0.756115  -0.120294  -0.255211
H  -0.162371  -1.159168  -0.660606
