butane_opt
 OpenBabel08242015413D

 14 13  0  0  0  0  0  0  0  0999 V2000
   -3.9241    0.2743   -0.0014 C   0  0  0  0  0  0  0  0  0  0  0  0
   -2.6755   -0.6307    0.0567 C   0  0  0  0  0  0  0  0  0  0  0  0
   -4.7845   -0.3298    0.0981 H   0  0  0  0  0  0  0  0  0  0  0  0
   -4.0502    0.9223   -0.9229 H   0  0  0  0  0  0  0  0  0  0  0  0
   -3.9856    0.9187    0.7979 H   0  0  0  0  0  0  0  0  0  0  0  0
   -1.4176    0.1683    0.0236 C   0  0  0  0  0  0  0  0  0  0  0  0
   -2.6478   -1.1929   -0.7110 H   0  0  0  0  0  0  0  0  0  0  0  0
   -2.7559   -1.3072    1.0265 H   0  0  0  0  0  0  0  0  0  0  0  0
   -0.1855   -0.6749    0.0076 C   0  0  0  0  0  0  0  0  0  0  0  0
   -1.3673    0.8160    0.8604 H   0  0  0  0  0  0  0  0  0  0  0  0
   -1.4155    0.7872   -0.8519 H   0  0  0  0  0  0  0  0  0  0  0  0
   -0.2132   -1.1762    0.8207 H   0  0  0  0  0  0  0  0  0  0  0  0
    0.7718   -0.0407    0.2352 H   0  0  0  0  0  0  0  0  0  0  0  0
   -0.1460   -1.5113   -0.9587 H   0  0  0  0  0  0  0  0  0  0  0  0
  1  2  1  0  0  0  0
  1  3  1  0  0  0  0
  1  5  1  0  0  0  0
  2  8  1  0  0  0  0
  4  1  1  0  0  0  0
  6  2  1  0  0  0  0
  6 10  1  0  0  0  0
  7  2  1  0  0  0  0
  9  6  1  0  0  0  0
  9 13  1  0  0  0  0
  9 12  1  0  0  0  0
 11  6  1  0  0  0  0
 14  9  1  0  0  0  0
M  END
$$$$
