14
butane_opt
C  -3.931314   0.247312  -0.001526
C  -2.707646  -0.605251   0.036195
H  -4.812837  -0.349023   0.262433
H  -3.959392   1.139409  -1.039495
H  -3.853345   0.783293   0.775284
C  -1.401019   0.207347   0.051423
H  -2.746975  -1.307892  -0.813880
H  -2.685045  -1.268296   0.967267
C  -0.174594  -0.709552   0.016578
H  -1.446792   0.859741   0.910694
H  -1.380694   0.839706  -0.854660
H  -0.182823  -1.208938   0.818053
H   0.776864  -0.112169   0.075113
H  -0.155007  -1.511443  -0.934991
