butane_opt
 OpenBabel08242015413D

 14 13  0  0  0  0  0  0  0  0999 V2000
   -3.9388    0.2426    0.0696 C   0  0  0  0  0  0  0  0  0  0  0  0
   -2.7066   -0.6014   -0.0006 C   0  0  0  0  0  0  0  0  0  0  0  0
   -4.8272   -0.3313    0.0927 H   0  0  0  0  0  0  0  0  0  0  0  0
   -4.0042    0.7863   -0.7870 H   0  0  0  0  0  0  0  0  0  0  0  0
   -3.8922    0.9771    0.9806 H   0  0  0  0  0  0  0  0  0  0  0  0
   -1.4198    0.2161   -0.0731 C   0  0  0  0  0  0  0  0  0  0  0  0
   -2.8483   -1.2926   -0.8867 H   0  0  0  0  0  0  0  0  0  0  0  0
   -2.7380   -1.2288    0.9003 H   0  0  0  0  0  0  0  0  0  0  0  0
   -0.1389   -0.7059    0.0889 C   0  0  0  0  0  0  0  0  0  0  0  0
   -1.4252    0.9074    0.7542 H   0  0  0  0  0  0  0  0  0  0  0  0
   -1.3898    0.8436   -1.0037 H   0  0  0  0  0  0  0  0  0  0  0  0
   -0.2510   -1.3306    0.9914 H   0  0  0  0  0  0  0  0  0  0  0  0
    0.6963   -0.1277    0.2045 H   0  0  0  0  0  0  0  0  0  0  0  0
    0.1022   -1.5014   -0.8276 H   0  0  0  0  0  0  0  0  0  0  0  0
  1  3  1  0  0  0  0
  1  5  1  0  0  0  0
  2  1  1  0  0  0  0
  2  8  1  0  0  0  0
  4  1  1  0  0  0  0
  6  2  1  0  0  0  0
  6  9  1  0  0  0  0
  6 10  1  0  0  0  0
  7  2  1  0  0  0  0
  9 13  1  0  0  0  0
  9 12  1  0  0  0  0
 11  6  1  0  0  0  0
 14  9  1  0  0  0  0
M  END
$$$$
