14
butane_opt
C  -3.915771   0.241309   0.050682
C  -2.697445  -0.590418   0.005936
H  -4.821639  -0.378355   0.093060
H  -4.017863   0.747777  -0.781151
H  -3.846720   0.957404   0.978130
C  -1.433963   0.221348  -0.059972
H  -2.748413  -1.232616  -0.817419
H  -2.694852  -1.211549   0.949015
C  -0.155592  -0.716344   0.079739
H  -1.379724   0.803528   0.737023
H  -1.436307   0.867105  -0.966442
H  -0.329145  -1.227497   0.926122
H   0.737191  -0.122204   0.232597
H  -0.032751  -1.558533  -0.836213
