14
butane_opt
C  -3.955604   0.289148   0.068489
C  -2.702816  -0.643771  -0.056107
H  -4.870286  -0.288059   0.227593
H  -4.135182   0.877309  -0.801556
H  -3.815652   0.927499   0.918468
C  -1.381814   0.176889  -0.020111
H  -2.737291  -1.307812  -0.937311
H  -2.686676  -1.243651   0.844724
C  -0.161755  -0.677000   0.086417
H  -1.365886   0.788969   0.806788
H  -1.362720   0.806183  -0.882671
H  -0.217690  -1.401236   1.080962
H   0.717466  -0.165519  -0.065950
H  -0.124990  -1.206501  -0.688368
