14
butane_opt
C  -3.957904   0.268717   0.067109
C  -2.688054  -0.613713   0.005395
H  -4.814646  -0.237012  -0.151899
H  -3.931115   0.780872  -0.771555
H  -4.031298   1.028754   1.015644
C  -1.397006   0.162108  -0.048254
H  -2.689929  -1.338164  -0.813021
H  -2.613365  -1.274685   0.917409
C  -0.168794  -0.681461   0.063937
H  -1.441797   0.820196   0.791947
H  -1.382338   0.740096  -0.915738
H  -0.239502  -1.344707   1.005969
H   0.792220  -0.034280   0.041741
H  -0.139255  -1.221205  -0.729769
