butane_opt
 OpenBabel08242015413D

 14 13  0  0  0  0  0  0  0  0999 V2000
   -3.9632    0.2703   -0.0169 C   0  0  0  0  0  0  0  0  0  0  0  0
   -2.7020   -0.6388    0.0652 C   0  0  0  0  0  0  0  0  0  0  0  0
   -4.8363   -0.2811   -0.0289 H   0  0  0  0  0  0  0  0  0  0  0  0
   -3.9331    0.8934   -0.8953 H   0  0  0  0  0  0  0  0  0  0  0  0
   -4.0707    0.8940    0.8083 H   0  0  0  0  0  0  0  0  0  0  0  0
   -1.4110    0.1903    0.0622 C   0  0  0  0  0  0  0  0  0  0  0  0
   -2.6441   -1.3135   -0.7428 H   0  0  0  0  0  0  0  0  0  0  0  0
   -2.7536   -1.2199    0.9143 H   0  0  0  0  0  0  0  0  0  0  0  0
   -0.1421   -0.6853    0.0071 C   0  0  0  0  0  0  0  0  0  0  0  0
   -1.3495    0.8796    0.9577 H   0  0  0  0  0  0  0  0  0  0  0  0
   -1.3315    0.7984   -0.7947 H   0  0  0  0  0  0  0  0  0  0  0  0
    0.0325   -1.3392    0.9375 H   0  0  0  0  0  0  0  0  0  0  0  0
    0.7001   -0.1594   -0.2783 H   0  0  0  0  0  0  0  0  0  0  0  0
   -0.2232   -1.2649   -0.8505 H   0  0  0  0  0  0  0  0  0  0  0  0
  1  2  1  0  0  0  0
  1  5  1  0  0  0  0
  2  8  1  0  0  0  0
  3  1  1  0  0  0  0
  4  1  1  0  0  0  0
  6  2  1  0  0  0  0
  6 10  1  0  0  0  0
  7  2  1  0  0  0  0
  9  6  1  0  0  0  0
  9 12  1  0  0  0  0
 11  6  1  0  0  0  0
 13  9  1  0  0  0  0
 14  9  1  0  0  0  0
M  END
$$$$
