14
butane_opt
C  -3.938847   0.242615   0.069648
C  -2.706557  -0.601394  -0.000551
H  -4.827207  -0.331326   0.092710
H  -4.004170   0.786305  -0.787040
H  -3.892185   0.977080   0.980554
C  -1.419782   0.216073  -0.073117
H  -2.848288  -1.292614  -0.886656
H  -2.737994  -1.228781   0.900265
C  -0.138868  -0.705950   0.088860
H  -1.425211   0.907449   0.754197
H  -1.389783   0.843589  -1.003671
H  -0.250996  -1.330574   0.991413
H   0.696256  -0.127676   0.204510
H   0.102241  -1.501352  -0.827597
