butane_opt
 OpenBabel08242015413D

 14 13  0  0  0  0  0  0  0  0999 V2000
   -3.9380    0.2465    0.0057 C   0  0  0  0  0  0  0  0  0  0  0  0
   -2.7224   -0.5974    0.0707 C   0  0  0  0  0  0  0  0  0  0  0  0
   -4.8736   -0.3573    0.1001 H   0  0  0  0  0  0  0  0  0  0  0  0
   -3.9138    0.9270   -0.9571 H   0  0  0  0  0  0  0  0  0  0  0  0
   -3.9913    0.8521    0.8119 H   0  0  0  0  0  0  0  0  0  0  0  0
   -1.4116    0.1988   -0.0113 C   0  0  0  0  0  0  0  0  0  0  0  0
   -2.8170   -1.1244   -0.7199 H   0  0  0  0  0  0  0  0  0  0  0  0
   -2.7527   -1.2715    0.9790 H   0  0  0  0  0  0  0  0  0  0  0  0
   -0.1221   -0.7080    0.0240 C   0  0  0  0  0  0  0  0  0  0  0  0
   -1.3573    0.9475    0.9183 H   0  0  0  0  0  0  0  0  0  0  0  0
   -1.4672    0.7602   -0.8614 H   0  0  0  0  0  0  0  0  0  0  0  0
   -0.2149   -1.1415    0.8228 H   0  0  0  0  0  0  0  0  0  0  0  0
    0.7270   -0.1462    0.2574 H   0  0  0  0  0  0  0  0  0  0  0  0
   -0.0263   -1.6185   -1.0031 H   0  0  0  0  0  0  0  0  0  0  0  0
  1  2  1  0  0  0  0
  1  3  1  0  0  0  0
  1  5  1  0  0  0  0
  2  8  1  0  0  0  0
  4  1  1  0  0  0  0
  6  9  1  0  0  0  0
  6  2  1  0  0  0  0
  6 10  1  0  0  0  0
  7  2  1  0  0  0  0
  9 13  1  0  0  0  0
  9 12  1  0  0  0  0
 11  6  1  0  0  0  0
 14  9  1  0  0  0  0
M  END
$$$$
