14
butane_opt
C  -3.956217   0.244043   0.078740
C  -2.715638  -0.576264  -0.016486
H  -4.872481  -0.340116   0.073783
H  -3.947076   0.707195  -0.749574
H  -3.930910   0.940189   1.001357
C  -1.405045   0.205467  -0.079256
H  -2.761797  -1.225480  -0.849317
H  -2.713887  -1.258446   0.923371
C  -0.140555  -0.718605   0.097609
H  -1.399351   0.902695   0.728418
H  -1.248388   0.854242  -1.007088
H  -0.201623  -1.287290   0.972031
H   0.693499  -0.170646   0.218833
H  -0.015045  -1.473460  -0.833191
