butane_opt
 OpenBabel08242015413D

 14 13  0  0  0  0  0  0  0  0999 V2000
   -3.9579    0.2687    0.0671 C   0  0  0  0  0  0  0  0  0  0  0  0
   -2.6881   -0.6137    0.0054 C   0  0  0  0  0  0  0  0  0  0  0  0
   -4.8146   -0.2370   -0.1519 H   0  0  0  0  0  0  0  0  0  0  0  0
   -3.9311    0.7809   -0.7716 H   0  0  0  0  0  0  0  0  0  0  0  0
   -4.0313    1.0288    1.0156 H   0  0  0  0  0  0  0  0  0  0  0  0
   -1.3970    0.1621   -0.0483 C   0  0  0  0  0  0  0  0  0  0  0  0
   -2.6899   -1.3382   -0.8130 H   0  0  0  0  0  0  0  0  0  0  0  0
   -2.6134   -1.2747    0.9174 H   0  0  0  0  0  0  0  0  0  0  0  0
   -0.1688   -0.6815    0.0639 C   0  0  0  0  0  0  0  0  0  0  0  0
   -1.4418    0.8202    0.7919 H   0  0  0  0  0  0  0  0  0  0  0  0
   -1.3823    0.7401   -0.9157 H   0  0  0  0  0  0  0  0  0  0  0  0
   -0.2395   -1.3447    1.0060 H   0  0  0  0  0  0  0  0  0  0  0  0
    0.7922   -0.0343    0.0417 H   0  0  0  0  0  0  0  0  0  0  0  0
   -0.1393   -1.2212   -0.7298 H   0  0  0  0  0  0  0  0  0  0  0  0
  1  5  1  0  0  0  0
  2  1  1  0  0  0  0
  2  8  1  0  0  0  0
  3  1  1  0  0  0  0
  4  1  1  0  0  0  0
  6  2  1  0  0  0  0
  6  9  1  0  0  0  0
  6 10  1  0  0  0  0
  7  2  1  0  0  0  0
  9 12  1  0  0  0  0
 11  6  1  0  0  0  0
 13  9  1  0  0  0  0
 14  9  1  0  0  0  0
M  END
$$$$
