butane_opt
 OpenBabel08242015413D

 14 13  0  0  0  0  0  0  0  0999 V2000
   -3.9351    0.2546   -0.0016 C   0  0  0  0  0  0  0  0  0  0  0  0
   -2.6927   -0.6023    0.0719 C   0  0  0  0  0  0  0  0  0  0  0  0
   -4.8654   -0.3371   -0.1072 H   0  0  0  0  0  0  0  0  0  0  0  0
   -3.8992    0.7974   -0.8497 H   0  0  0  0  0  0  0  0  0  0  0  0
   -4.0063    1.0283    0.9179 H   0  0  0  0  0  0  0  0  0  0  0  0
   -1.4184    0.1898    0.0196 C   0  0  0  0  0  0  0  0  0  0  0  0
   -2.6867   -1.2961   -0.8014 H   0  0  0  0  0  0  0  0  0  0  0  0
   -2.7380   -1.2676    0.9843 H   0  0  0  0  0  0  0  0  0  0  0  0
   -0.1561   -0.6977    0.0184 C   0  0  0  0  0  0  0  0  0  0  0  0
   -1.3490    0.8343    0.8573 H   0  0  0  0  0  0  0  0  0  0  0  0
   -1.4436    0.8230   -0.8904 H   0  0  0  0  0  0  0  0  0  0  0  0
   -0.1247   -1.3332    0.9110 H   0  0  0  0  0  0  0  0  0  0  0  0
    0.7630   -0.0907   -0.0069 H   0  0  0  0  0  0  0  0  0  0  0  0
   -0.2370   -1.3652   -0.8560 H   0  0  0  0  0  0  0  0  0  0  0  0
  1  2  1  0  0  0  0
  1  5  1  0  0  0  0
  2  8  1  0  0  0  0
  3  1  1  0  0  0  0
  4  1  1  0  0  0  0
  6  2  1  0  0  0  0
  6 10  1  0  0  0  0
  7  2  1  0  0  0  0
  9  6  1  0  0  0  0
  9 12  1  0  0  0  0
 11  6  1  0  0  0  0
 13  9  1  0  0  0  0
 14  9  1  0  0  0  0
M  END
$$$$
