14
butane_opt
C  -3.928792   0.260300  -0.015456
C  -2.688782  -0.618178   0.068737
H  -4.844114  -0.335722  -0.015864
H  -3.909273   0.938758  -1.005135
H  -3.971197   0.927978   0.813127
C  -1.415673   0.186690   0.082208
H  -2.660171  -1.314647  -0.761444
H  -2.743551  -1.251765   0.953942
C  -0.179526  -0.685724  -0.012508
H  -1.492959   0.823206   0.873425
H  -1.388437   0.782075  -0.802925
H   0.059780  -1.352619   0.925969
H   0.715047  -0.096337  -0.129837
H  -0.247761  -1.297689  -0.885104
