butane_opt
 OpenBabel08242015413D

 14 13  0  0  0  0  0  0  0  0999 V2000
   -3.9268    0.2633   -0.0296 C   0  0  0  0  0  0  0  0  0  0  0  0
   -2.6794   -0.6108    0.0996 C   0  0  0  0  0  0  0  0  0  0  0  0
   -4.9154   -0.3661   -0.1682 H   0  0  0  0  0  0  0  0  0  0  0  0
   -3.8505    0.7800   -0.8968 H   0  0  0  0  0  0  0  0  0  0  0  0
   -4.1177    1.0656    0.8729 H   0  0  0  0  0  0  0  0  0  0  0  0
   -1.4183    0.1780    0.0676 C   0  0  0  0  0  0  0  0  0  0  0  0
   -2.6622   -1.2406   -0.6911 H   0  0  0  0  0  0  0  0  0  0  0  0
   -2.7813   -1.3151    1.0164 H   0  0  0  0  0  0  0  0  0  0  0  0
   -0.1646   -0.7005   -0.0122 C   0  0  0  0  0  0  0  0  0  0  0  0
   -1.3506    0.8288    0.8688 H   0  0  0  0  0  0  0  0  0  0  0  0
   -1.4968    0.8710   -0.8976 H   0  0  0  0  0  0  0  0  0  0  0  0
   -0.1129   -1.2281    0.8303 H   0  0  0  0  0  0  0  0  0  0  0  0
    0.8088   -0.0551   -0.0773 H   0  0  0  0  0  0  0  0  0  0  0  0
   -0.2659   -1.3798   -0.9036 H   0  0  0  0  0  0  0  0  0  0  0  0
  1  2  1  0  0  0  0
  1  5  1  0  0  0  0
  2  8  1  0  0  0  0
  3  1  1  0  0  0  0
  4  1  1  0  0  0  0
  6  2  1  0  0  0  0
  6 10  1  0  0  0  0
  7  2  1  0  0  0  0
  9  6  1  0  0  0  0
  9 12  1  0  0  0  0
 11  6  1  0  0  0  0
 13  9  1  0  0  0  0
 14  9  1  0  0  0  0
M  END
$$$$
