butane_opt
 OpenBabel08242015413D

 14 13  0  0  0  0  0  0  0  0999 V2000
   -3.9543    0.2919   -0.0379 C   0  0  0  0  0  0  0  0  0  0  0  0
   -2.6912   -0.6509    0.1026 C   0  0  0  0  0  0  0  0  0  0  0  0
   -4.8387   -0.2558   -0.1385 H   0  0  0  0  0  0  0  0  0  0  0  0
   -3.9210    0.7815   -0.8797 H   0  0  0  0  0  0  0  0  0  0  0  0
   -4.1761    1.0281    0.8498 H   0  0  0  0  0  0  0  0  0  0  0  0
   -1.3796    0.1769    0.0755 C   0  0  0  0  0  0  0  0  0  0  0  0
   -2.6759   -1.3010   -0.7183 H   0  0  0  0  0  0  0  0  0  0  0  0
   -2.8528   -1.2862    1.0296 H   0  0  0  0  0  0  0  0  0  0  0  0
   -0.1599   -0.6900   -0.0268 C   0  0  0  0  0  0  0  0  0  0  0  0
   -1.3645    0.7814    0.8705 H   0  0  0  0  0  0  0  0  0  0  0  0
   -1.3751    0.8612   -0.7960 H   0  0  0  0  0  0  0  0  0  0  0  0
   -0.0731   -1.2604    0.8622 H   0  0  0  0  0  0  0  0  0  0  0  0
    0.7593   -0.0491   -0.1108 H   0  0  0  0  0  0  0  0  0  0  0  0
   -0.2844   -1.3063   -0.8736 H   0  0  0  0  0  0  0  0  0  0  0  0
  1  2  1  0  0  0  0
  1  5  1  0  0  0  0
  2  8  1  0  0  0  0
  3  1  1  0  0  0  0
  4  1  1  0  0  0  0
  6  2  1  0  0  0  0
  6 10  1  0  0  0  0
  7  2  1  0  0  0  0
  9  6  1  0  0  0  0
  9 12  1  0  0  0  0
 11  6  1  0  0  0  0
 13  9  1  0  0  0  0
 14  9  1  0  0  0  0
M  END
$$$$
