butane_opt
 OpenBabel08242015413D

 14 13  0  0  0  0  0  0  0  0999 V2000
   -3.9288    0.2603   -0.0155 C   0  0  0  0  0  0  0  0  0  0  0  0
   -2.6888   -0.6182    0.0687 C   0  0  0  0  0  0  0  0  0  0  0  0
   -4.8441   -0.3357   -0.0159 H   0  0  0  0  0  0  0  0  0  0  0  0
   -3.9093    0.9388   -1.0051 H   0  0  0  0  0  0  0  0  0  0  0  0
   -3.9712    0.9280    0.8131 H   0  0  0  0  0  0  0  0  0  0  0  0
   -1.4157    0.1867    0.0822 C   0  0  0  0  0  0  0  0  0  0  0  0
   -2.6602   -1.3146   -0.7614 H   0  0  0  0  0  0  0  0  0  0  0  0
   -2.7436   -1.2518    0.9539 H   0  0  0  0  0  0  0  0  0  0  0  0
   -0.1795   -0.6857   -0.0125 C   0  0  0  0  0  0  0  0  0  0  0  0
   -1.4930    0.8232    0.8734 H   0  0  0  0  0  0  0  0  0  0  0  0
   -1.3884    0.7821   -0.8029 H   0  0  0  0  0  0  0  0  0  0  0  0
    0.0598   -1.3526    0.9260 H   0  0  0  0  0  0  0  0  0  0  0  0
    0.7150   -0.0963   -0.1298 H   0  0  0  0  0  0  0  0  0  0  0  0
   -0.2478   -1.2977   -0.8851 H   0  0  0  0  0  0  0  0  0  0  0  0
  1  2  1  0  0  0  0
  1  5  1  0  0  0  0
  2  6  1  0  0  0  0
  2  8  1  0  0  0  0
  3  1  1  0  0  0  0
  4  1  1  0  0  0  0
  6 10  1  0  0  0  0
  7  2  1  0  0  0  0
  9  6  1  0  0  0  0
  9 12  1  0  0  0  0
 11  6  1  0  0  0  0
 13  9  1  0  0  0  0
 14  9  1  0  0  0  0
M  END
$$$$
