14
butane_opt
C  -3.945239   0.250462  -0.046211
C  -2.736152  -0.588356   0.121746
H  -4.937299  -0.406847  -0.131943
H  -3.842406   0.793131  -0.932378
H  -4.096395   0.995973   0.827981
C  -1.396218   0.211063   0.076043
H  -2.601135  -1.266245  -0.735954
H  -2.821482  -1.251758   1.047507
C  -0.136785  -0.715660  -0.025984
H  -1.300349   0.871512   0.873049
H  -1.432365   0.789468  -0.796999
H   0.042240  -1.333943   0.887854
H   0.740539  -0.147915  -0.127757
H  -0.185024  -1.423777  -0.955938
