14
butane_opt
C  -3.926752   0.263344  -0.029608
C  -2.679412  -0.610799   0.099617
H  -4.915381  -0.366096  -0.168247
H  -3.850494   0.780006  -0.896824
H  -4.117668   1.065555   0.872901
C  -1.418340   0.178023   0.067638
H  -2.662179  -1.240614  -0.691120
H  -2.781308  -1.315058   1.016400
C  -0.164581  -0.700459  -0.012151
H  -1.350556   0.828793   0.868818
H  -1.496758   0.870985  -0.897649
H  -0.112912  -1.228092   0.830301
H   0.808841  -0.055116  -0.077284
H  -0.265870  -1.379843  -0.903634
