14
butane_opt
C  -3.933443   0.260456   0.070961
C  -2.715690  -0.602967  -0.038904
H  -4.860334  -0.332498   0.204460
H  -4.044778   0.906150  -0.854893
H  -3.831332   0.858525   0.915745
C  -1.405012   0.198279  -0.035675
H  -2.841102  -1.277411  -0.875082
H  -2.611179  -1.216302   0.813001
C  -0.164240  -0.705662   0.078794
H  -1.460190   0.853355   0.832826
H  -1.338862   0.790635  -0.883754
H  -0.223570  -1.406826   1.061146
H   0.830277  -0.074743   0.034343
H  -0.032516  -1.358268  -0.730605
