butane_opt
 OpenBabel08242015413D

 14 13  0  0  0  0  0  0  0  0999 V2000
   -3.9594    0.2879    0.0005 C   0  0  0  0  0  0  0  0  0  0  0  0
   -2.6949   -0.6569    0.0397 C   0  0  0  0  0  0  0  0  0  0  0  0
   -4.8444   -0.3000    0.1722 H   0  0  0  0  0  0  0  0  0  0  0  0
   -4.0795    1.0000   -0.9492 H   0  0  0  0  0  0  0  0  0  0  0  0
   -4.0467    0.8796    0.7926 H   0  0  0  0  0  0  0  0  0  0  0  0
   -1.3887    0.1744    0.0279 C   0  0  0  0  0  0  0  0  0  0  0  0
   -2.6531   -1.3181   -0.7544 H   0  0  0  0  0  0  0  0  0  0  0  0
   -2.6553   -1.2651    0.9447 H   0  0  0  0  0  0  0  0  0  0  0  0
   -0.1651   -0.6679    0.0163 C   0  0  0  0  0  0  0  0  0  0  0  0
   -1.3872    0.9243    0.9676 H   0  0  0  0  0  0  0  0  0  0  0  0
   -1.3189    0.6750   -0.8093 H   0  0  0  0  0  0  0  0  0  0  0  0
   -0.1239   -1.2795    0.8945 H   0  0  0  0  0  0  0  0  0  0  0  0
    0.7242   -0.1078   -0.0405 H   0  0  0  0  0  0  0  0  0  0  0  0
   -0.1423   -1.3184   -0.8056 H   0  0  0  0  0  0  0  0  0  0  0  0
  1  2  1  0  0  0  0
  1  3  1  0  0  0  0
  1  5  1  0  0  0  0
  2  8  1  0  0  0  0
  4  1  1  0  0  0  0
  6  2  1  0  0  0  0
  6 10  1  0  0  0  0
  7  2  1  0  0  0  0
  9  6  1  0  0  0  0
  9 12  1  0  0  0  0
 11  6  1  0  0  0  0
 13  9  1  0  0  0  0
 14  9  1  0  0  0  0
M  END
$$$$
