14
butane_opt
C  -3.941927   0.245721  -0.027682
C  -2.708000  -0.617408   0.062701
H  -4.810734  -0.376892   0.195774
H  -3.958033   1.005721  -1.012741
H  -3.870334   0.812680   0.778211
C  -1.424391   0.227284   0.055598
H  -2.797795  -1.174985  -0.737377
H  -2.778203  -1.283824   0.959244
C  -0.136122  -0.717609   0.010673
H  -1.437000   0.978837   0.936292
H  -1.427103   0.774634  -0.746249
H  -0.028171  -1.239412   0.803365
H   0.742646  -0.163021  -0.052220
H  -0.133990  -1.459288  -0.926841
