butane_opt
 OpenBabel08242015413D

 14 13  0  0  0  0  0  0  0  0999 V2000
   -3.9724    0.2655   -0.0123 C   0  0  0  0  0  0  0  0  0  0  0  0
   -2.6935   -0.6337    0.0646 C   0  0  0  0  0  0  0  0  0  0  0  0
   -4.8678   -0.2878    0.2555 H   0  0  0  0  0  0  0  0  0  0  0  0
   -4.0425    1.1417   -1.0875 H   0  0  0  0  0  0  0  0  0  0  0  0
   -3.9429    0.7232    0.7260 H   0  0  0  0  0  0  0  0  0  0  0  0
   -1.3857    0.1885    0.0553 C   0  0  0  0  0  0  0  0  0  0  0  0
   -2.7330   -1.2957   -0.8101 H   0  0  0  0  0  0  0  0  0  0  0  0
   -2.7306   -1.2035    0.8863 H   0  0  0  0  0  0  0  0  0  0  0  0
   -0.1455   -0.6951   -0.0005 C   0  0  0  0  0  0  0  0  0  0  0  0
   -1.4636    0.9354    0.9752 H   0  0  0  0  0  0  0  0  0  0  0  0
   -1.3764    0.7281   -0.8029 H   0  0  0  0  0  0  0  0  0  0  0  0
   -0.0812   -1.2455    0.8461 H   0  0  0  0  0  0  0  0  0  0  0  0
    0.7734   -0.0466    0.0530 H   0  0  0  0  0  0  0  0  0  0  0  0
   -0.2002   -1.4127   -0.9159 H   0  0  0  0  0  0  0  0  0  0  0  0
  1  2  1  0  0  0  0
  1  3  1  0  0  0  0
  1  5  1  0  0  0  0
  2  8  1  0  0  0  0
  4  1  1  0  0  0  0
  6  2  1  0  0  0  0
  6 10  1  0  0  0  0
  7  2  1  0  0  0  0
  9 13  1  0  0  0  0
  9  6  1  0  0  0  0
  9 12  1  0  0  0  0
 11  6  1  0  0  0  0
 14  9  1  0  0  0  0
M  END
$$$$
