14
butane_opt
C  -3.971722   0.281970  -0.002776
C  -2.698664  -0.645235   0.029540
H  -4.846472  -0.285952   0.314075
H  -4.146277   1.086337  -1.065499
H  -3.886490   0.773764   0.763400
C  -1.408376   0.170449   0.054878
H  -2.724634  -1.251604  -0.829638
H  -2.707384  -1.318036   0.953520
C  -0.126113  -0.676390   0.006005
H  -1.355552   0.917129   0.962012
H  -1.351573   0.784448  -0.838302
H  -0.174246  -1.269145   0.893418
H   0.817906  -0.042794   0.126080
H  -0.194102  -1.425468  -0.911265
