butane_opt
 OpenBabel08242015413D

 14 13  0  0  0  0  0  0  0  0999 V2000
   -3.9733    0.2835    0.0430 C   0  0  0  0  0  0  0  0  0  0  0  0
   -2.7031   -0.6309   -0.0142 C   0  0  0  0  0  0  0  0  0  0  0  0
   -4.8487   -0.3083   -0.0278 H   0  0  0  0  0  0  0  0  0  0  0  0
   -4.1210    0.8185   -0.7733 H   0  0  0  0  0  0  0  0  0  0  0  0
   -3.9344    1.0871    0.9998 H   0  0  0  0  0  0  0  0  0  0  0  0
   -1.3820    0.1595    0.0017 C   0  0  0  0  0  0  0  0  0  0  0  0
   -2.7508   -1.3451   -0.8869 H   0  0  0  0  0  0  0  0  0  0  0  0
   -2.6791   -1.2598    0.8684 H   0  0  0  0  0  0  0  0  0  0  0  0
   -0.1372   -0.6621    0.0651 C   0  0  0  0  0  0  0  0  0  0  0  0
   -1.4053    0.8088    0.8109 H   0  0  0  0  0  0  0  0  0  0  0  0
   -1.3749    0.7123   -0.8881 H   0  0  0  0  0  0  0  0  0  0  0  0
   -0.0948   -1.5534    1.1227 H   0  0  0  0  0  0  0  0  0  0  0  0
    0.7647   -0.0980   -0.2181 H   0  0  0  0  0  0  0  0  0  0  0  0
   -0.2379   -1.1145   -0.6872 H   0  0  0  0  0  0  0  0  0  0  0  0
  1  5  1  0  0  0  0
  2  6  1  0  0  0  0
  2  1  1  0  0  0  0
  2  8  1  0  0  0  0
  3  1  1  0  0  0  0
  4  1  1  0  0  0  0
  6  9  1  0  0  0  0
  6 10  1  0  0  0  0
  7  2  1  0  0  0  0
  9 12  1  0  0  0  0
 11  6  1  0  0  0  0
 13  9  1  0  0  0  0
 14  9  1  0  0  0  0
M  END
$$$$
