14
butane_opt
C  -3.937978   0.259936   0.051376
C  -2.699249  -0.606969   0.002207
H  -4.879204  -0.354747   0.102763
H  -3.979317   0.887273  -0.816125
H  -3.904100   0.937600   0.913875
C  -1.403059   0.193732  -0.029636
H  -2.767906  -1.312140  -0.871041
H  -2.642593  -1.264143   0.884905
C  -0.166279  -0.699092   0.065651
H  -1.414440   0.869652   0.809781
H  -1.359466   0.832065  -0.932318
H  -0.253839  -1.337972   0.987498
H   0.745103  -0.108007   0.097039
H  -0.082963  -1.398620  -0.818589
