butane_opt
 OpenBabel08242015413D

 14 13  0  0  0  0  0  0  0  0999 V2000
   -3.9419    0.2457   -0.0277 C   0  0  0  0  0  0  0  0  0  0  0  0
   -2.7080   -0.6174    0.0627 C   0  0  0  0  0  0  0  0  0  0  0  0
   -4.8107   -0.3769    0.1958 H   0  0  0  0  0  0  0  0  0  0  0  0
   -3.9580    1.0057   -1.0127 H   0  0  0  0  0  0  0  0  0  0  0  0
   -3.8703    0.8127    0.7782 H   0  0  0  0  0  0  0  0  0  0  0  0
   -1.4244    0.2273    0.0556 C   0  0  0  0  0  0  0  0  0  0  0  0
   -2.7978   -1.1750   -0.7374 H   0  0  0  0  0  0  0  0  0  0  0  0
   -2.7782   -1.2838    0.9592 H   0  0  0  0  0  0  0  0  0  0  0  0
   -0.1361   -0.7176    0.0107 C   0  0  0  0  0  0  0  0  0  0  0  0
   -1.4370    0.9788    0.9363 H   0  0  0  0  0  0  0  0  0  0  0  0
   -1.4271    0.7746   -0.7462 H   0  0  0  0  0  0  0  0  0  0  0  0
   -0.0282   -1.2394    0.8034 H   0  0  0  0  0  0  0  0  0  0  0  0
    0.7426   -0.1630   -0.0522 H   0  0  0  0  0  0  0  0  0  0  0  0
   -0.1340   -1.4593   -0.9268 H   0  0  0  0  0  0  0  0  0  0  0  0
  1  2  1  0  0  0  0
  1  3  1  0  0  0  0
  1  5  1  0  0  0  0
  2  8  1  0  0  0  0
  4  1  1  0  0  0  0
  6  2  1  0  0  0  0
  6 10  1  0  0  0  0
  7  2  1  0  0  0  0
  9  6  1  0  0  0  0
  9 12  1  0  0  0  0
 11  6  1  0  0  0  0
 13  9  1  0  0  0  0
 14  9  1  0  0  0  0
M  END
$$$$
