14
butane_opt
C  -3.972372   0.265512  -0.012300
C  -2.693489  -0.633673   0.064583
H  -4.867762  -0.287801   0.255483
H  -4.042526   1.141662  -1.087465
H  -3.942869   0.723196   0.726035
C  -1.385718   0.188502   0.055334
H  -2.732957  -1.295745  -0.810128
H  -2.730599  -1.203466   0.886296
C  -0.145507  -0.695147  -0.000536
H  -1.463647   0.935362   0.975222
H  -1.376415   0.728063  -0.802860
H  -0.081194  -1.245497   0.846148
H   0.773411  -0.046577   0.052959
H  -0.200222  -1.412671  -0.915940
