14
butane_opt
C  -3.934341   0.253287   0.090183
C  -2.716673  -0.582793   0.005057
H  -4.885696  -0.413947  -0.013702
H  -3.881995   0.808104  -0.747943
H  -3.918236   0.900412   0.920427
C  -1.410771   0.204464  -0.075534
H  -2.761266  -1.330682  -0.919322
H  -2.689360  -1.180417   0.844632
C  -0.162933  -0.722785   0.085060
H  -1.423532   0.808951   0.743147
H  -1.320032   0.925603  -1.053481
H  -0.228624  -1.252176   0.942472
H   0.731762  -0.123881   0.273352
H   0.051461  -1.454573  -0.811523
