14
butane_opt
C  -3.915378   0.248650   0.078434
C  -2.698742  -0.589680  -0.028081
H  -4.844403  -0.424138   0.192124
H  -3.998189   0.856796  -0.780687
H  -3.871878   0.886486   0.938247
C  -1.416627   0.214274  -0.059914
H  -2.787296  -1.297037  -0.917832
H  -2.665695  -1.208425   0.892337
C  -0.177932  -0.714904   0.088448
H  -1.482506   0.839043   0.747781
H  -1.278389   0.895989  -0.996708
H  -0.255756  -1.329716   0.980522
H   0.707668  -0.135261   0.241547
H  -0.025796  -1.470281  -0.813872
