butane_opt
 OpenBabel08242015413D

 14 13  0  0  0  0  0  0  0  0999 V2000
   -3.9205    0.2610    0.0498 C   0  0  0  0  0  0  0  0  0  0  0  0
   -2.7010   -0.5841    0.0103 C   0  0  0  0  0  0  0  0  0  0  0  0
   -4.9237   -0.4292   -0.0998 H   0  0  0  0  0  0  0  0  0  0  0  0
   -3.8762    0.6115   -0.6884 H   0  0  0  0  0  0  0  0  0  0  0  0
   -3.9163    1.0250    1.0050 H   0  0  0  0  0  0  0  0  0  0  0  0
   -1.4183    0.2078   -0.0278 C   0  0  0  0  0  0  0  0  0  0  0  0
   -2.8033   -1.2581   -0.8511 H   0  0  0  0  0  0  0  0  0  0  0  0
   -2.6617   -1.2204    0.8987 H   0  0  0  0  0  0  0  0  0  0  0  0
   -0.1641   -0.7203    0.0691 C   0  0  0  0  0  0  0  0  0  0  0  0
   -1.4304    0.7705    0.7270 H   0  0  0  0  0  0  0  0  0  0  0  0
   -1.3638    0.8881   -1.0325 H   0  0  0  0  0  0  0  0  0  0  0  0
   -0.1299   -1.4023    1.0010 H   0  0  0  0  0  0  0  0  0  0  0  0
    0.7228   -0.1144    0.0668 H   0  0  0  0  0  0  0  0  0  0  0  0
   -0.1847   -1.3283   -0.7745 H   0  0  0  0  0  0  0  0  0  0  0  0
  1  5  1  0  0  0  0
  2  1  1  0  0  0  0
  2  8  1  0  0  0  0
  3  1  1  0  0  0  0
  4  1  1  0  0  0  0
  6  2  1  0  0  0  0
  6  9  1  0  0  0  0
  6 10  1  0  0  0  0
  7  2  1  0  0  0  0
  9 12  1  0  0  0  0
 11  6  1  0  0  0  0
 13  9  1  0  0  0  0
 14  9  1  0  0  0  0
M  END
$$$$
