butane_opt
 OpenBabel08242015413D

 14 13  0  0  0  0  0  0  0  0999 V2000
   -3.9413    0.2557   -0.0184 C   0  0  0  0  0  0  0  0  0  0  0  0
   -2.7121   -0.6132    0.0897 C   0  0  0  0  0  0  0  0  0  0  0  0
   -4.8460   -0.3461    0.0479 H   0  0  0  0  0  0  0  0  0  0  0  0
   -4.0374    0.9323   -0.9617 H   0  0  0  0  0  0  0  0  0  0  0  0
   -3.9854    0.8286    0.7928 H   0  0  0  0  0  0  0  0  0  0  0  0
   -1.3974    0.2056    0.0197 C   0  0  0  0  0  0  0  0  0  0  0  0
   -2.7982   -1.1778   -0.6721 H   0  0  0  0  0  0  0  0  0  0  0  0
   -2.8144   -1.2858    1.0789 H   0  0  0  0  0  0  0  0  0  0  0  0
   -0.1418   -0.7123    0.0000 C   0  0  0  0  0  0  0  0  0  0  0  0
   -1.4428    0.9448    0.9069 H   0  0  0  0  0  0  0  0  0  0  0  0
   -1.3324    0.8467   -0.8761 H   0  0  0  0  0  0  0  0  0  0  0  0
   -0.1124   -1.0714    0.7111 H   0  0  0  0  0  0  0  0  0  0  0  0
    0.7208   -0.1372    0.2608 H   0  0  0  0  0  0  0  0  0  0  0  0
   -0.0539   -1.6526   -0.9885 H   0  0  0  0  0  0  0  0  0  0  0  0
  1  3  1  0  0  0  0
  1  2  1  0  0  0  0
  1  5  1  0  0  0  0
  2  8  1  0  0  0  0
  4  1  1  0  0  0  0
  6  2  1  0  0  0  0
  6 10  1  0  0  0  0
  7  2  1  0  0  0  0
  9  6  1  0  0  0  0
  9 13  1  0  0  0  0
  9 12  1  0  0  0  0
 11  6  1  0  0  0  0
 14  9  1  0  0  0  0
M  END
$$$$
