butane_opt
 OpenBabel08242015413D

 14 13  0  0  0  0  0  0  0  0999 V2000
   -3.9555    0.2762    0.0341 C   0  0  0  0  0  0  0  0  0  0  0  0
   -2.6957   -0.6360    0.0120 C   0  0  0  0  0  0  0  0  0  0  0  0
   -4.8748   -0.3300    0.1768 H   0  0  0  0  0  0  0  0  0  0  0  0
   -4.0398    1.0201   -0.9297 H   0  0  0  0  0  0  0  0  0  0  0  0
   -3.9000    0.8655    0.8355 H   0  0  0  0  0  0  0  0  0  0  0  0
   -1.3947    0.1833    0.0135 C   0  0  0  0  0  0  0  0  0  0  0  0
   -2.7404   -1.3587   -0.9091 H   0  0  0  0  0  0  0  0  0  0  0  0
   -2.7188   -1.2185    0.8779 H   0  0  0  0  0  0  0  0  0  0  0  0
   -0.1669   -0.6888    0.0476 C   0  0  0  0  0  0  0  0  0  0  0  0
   -1.3236    0.8488    0.8548 H   0  0  0  0  0  0  0  0  0  0  0  0
   -1.3930    0.8414   -0.9013 H   0  0  0  0  0  0  0  0  0  0  0  0
   -0.1517   -1.3108    0.9345 H   0  0  0  0  0  0  0  0  0  0  0  0
    0.7520   -0.0887    0.0170 H   0  0  0  0  0  0  0  0  0  0  0  0
   -0.0854   -1.3532   -0.8104 H   0  0  0  0  0  0  0  0  0  0  0  0
  1  3  1  0  0  0  0
  1  5  1  0  0  0  0
  2  6  1  0  0  0  0
  2  1  1  0  0  0  0
  2  8  1  0  0  0  0
  4  1  1  0  0  0  0
  6  9  1  0  0  0  0
  6 10  1  0  0  0  0
  7  2  1  0  0  0  0
  9 12  1  0  0  0  0
 11  6  1  0  0  0  0
 13  9  1  0  0  0  0
 14  9  1  0  0  0  0
M  END
$$$$
