butane_opt
 OpenBabel08242015413D

 14 13  0  0  0  0  0  0  0  0999 V2000
   -3.9692    0.2767   -0.0373 C   0  0  0  0  0  0  0  0  0  0  0  0
   -2.6941   -0.6274    0.0931 C   0  0  0  0  0  0  0  0  0  0  0  0
   -4.8788   -0.2908   -0.0913 H   0  0  0  0  0  0  0  0  0  0  0  0
   -3.9861    0.8245   -0.8966 H   0  0  0  0  0  0  0  0  0  0  0  0
   -4.1126    0.9607    0.7627 H   0  0  0  0  0  0  0  0  0  0  0  0
   -1.3875    0.1655    0.0789 C   0  0  0  0  0  0  0  0  0  0  0  0
   -2.6349   -1.2228   -0.7114 H   0  0  0  0  0  0  0  0  0  0  0  0
   -2.7817   -1.3079    1.0416 H   0  0  0  0  0  0  0  0  0  0  0  0
   -0.1439   -0.6773   -0.0309 C   0  0  0  0  0  0  0  0  0  0  0  0
   -1.4123    0.8845    0.9898 H   0  0  0  0  0  0  0  0  0  0  0  0
   -1.3981    0.7428   -0.7753 H   0  0  0  0  0  0  0  0  0  0  0  0
   -0.0097   -1.3528    0.9080 H   0  0  0  0  0  0  0  0  0  0  0  0
    0.7904   -0.0843   -0.1281 H   0  0  0  0  0  0  0  0  0  0  0  0
   -0.2681   -1.2767   -0.8926 H   0  0  0  0  0  0  0  0  0  0  0  0
  1  2  1  0  0  0  0
  1  5  1  0  0  0  0
  2  8  1  0  0  0  0
  3  1  1  0  0  0  0
  4  1  1  0  0  0  0
  6  2  1  0  0  0  0
  6 10  1  0  0  0  0
  7  2  1  0  0  0  0
  9  6  1  0  0  0  0
  9 12  1  0  0  0  0
 11  6  1  0  0  0  0
 13  9  1  0  0  0  0
 14  9  1  0  0  0  0
M  END
$$$$
