14
butane_opt
C  -3.920483   0.260962   0.049845
C  -2.700953  -0.584147   0.010257
H  -4.923723  -0.429178  -0.099830
H  -3.876203   0.611498  -0.688384
H  -3.916254   1.024979   1.004990
C  -1.418343   0.207763  -0.027839
H  -2.803312  -1.258100  -0.851143
H  -2.661731  -1.220404   0.898660
C  -0.164113  -0.720342   0.069086
H  -1.430376   0.770549   0.727030
H  -1.363773   0.888100  -1.032463
H  -0.129892  -1.402308   1.001040
H   0.722774  -0.114386   0.066804
H  -0.184726  -1.328290  -0.774518
