14
butane_opt
C  -3.965742   0.280389   0.059958
C  -2.703952  -0.644952  -0.001727
H  -4.902771  -0.326749  -0.037822
H  -3.979078   0.843987  -0.774566
H  -4.074808   1.041470   0.929298
C  -1.397291   0.178054  -0.019085
H  -2.699398  -1.412836  -0.937944
H  -2.614230  -1.153858   0.808995
C  -0.148410  -0.676759   0.069469
H  -1.367867   0.824946   0.834196
H  -1.321048   0.821509  -0.879613
H  -0.090799  -1.496543   1.120849
H   0.767644  -0.081403  -0.242038
H  -0.154908  -1.177500  -0.667227
