14
butane_opt
C  -3.941118   0.266441  -0.021237
C  -2.692730  -0.620830   0.074781
H  -4.842550  -0.307458   0.024619
H  -3.971661   0.894601  -0.936583
H  -3.991068   0.897195   0.813553
C  -1.403044   0.190645   0.053847
H  -2.669115  -1.330050  -0.770742
H  -2.741387  -1.277483   0.991892
C  -0.169273  -0.697480   0.003640
H  -1.349560   0.883670   0.918570
H  -1.469916   0.824074  -0.839632
H  -0.086706  -1.272170   0.855762
H   0.756422  -0.071197  -0.061063
H  -0.186886  -1.371744  -0.890307
