butane_opt
 OpenBabel08242015413D

 14 13  0  0  0  0  0  0  0  0999 V2000
   -3.9409    0.2863    0.0571 C   0  0  0  0  0  0  0  0  0  0  0  0
   -2.7031   -0.6204    0.0033 C   0  0  0  0  0  0  0  0  0  0  0  0
   -4.8121   -0.2738   -0.0476 H   0  0  0  0  0  0  0  0  0  0  0  0
   -3.9381    0.7771   -0.8342 H   0  0  0  0  0  0  0  0  0  0  0  0
   -4.0455    0.9545    0.9056 H   0  0  0  0  0  0  0  0  0  0  0  0
   -1.4103    0.1481   -0.0052 C   0  0  0  0  0  0  0  0  0  0  0  0
   -2.7712   -1.3778   -0.8883 H   0  0  0  0  0  0  0  0  0  0  0  0
   -2.5763   -1.2031    0.8505 H   0  0  0  0  0  0  0  0  0  0  0  0
   -0.1522   -0.6717    0.0521 C   0  0  0  0  0  0  0  0  0  0  0  0
   -1.4008    0.8165    0.8028 H   0  0  0  0  0  0  0  0  0  0  0  0
   -1.3868    0.8101   -0.9118 H   0  0  0  0  0  0  0  0  0  0  0  0
   -0.1376   -1.4500    1.0632 H   0  0  0  0  0  0  0  0  0  0  0  0
    0.7849   -0.0361   -0.0542 H   0  0  0  0  0  0  0  0  0  0  0  0
   -0.2712   -1.1846   -0.7104 H   0  0  0  0  0  0  0  0  0  0  0  0
  1  5  1  0  0  0  0
  2  1  1  0  0  0  0
  2  8  1  0  0  0  0
  3  1  1  0  0  0  0
  4  1  1  0  0  0  0
  6  2  1  0  0  0  0
  6  9  1  0  0  0  0
  6 10  1  0  0  0  0
  7  2  1  0  0  0  0
  9 12  1  0  0  0  0
 11  6  1  0  0  0  0
 13  9  1  0  0  0  0
 14  9  1  0  0  0  0
M  END
$$$$
