14
butane_opt
C  -3.932345   0.252399  -0.017402
C  -2.696197  -0.602128   0.085643
H  -4.840957  -0.344710  -0.143437
H  -3.803170   0.889288  -0.964481
H  -3.949421   0.889148   0.798189
C  -1.415781   0.198251   0.075990
H  -2.635901  -1.223795  -0.745843
H  -2.796310  -1.271372   0.980313
C  -0.179592  -0.711735  -0.012668
H  -1.379958   0.913267   0.968058
H  -1.364799   0.854405  -0.838268
H  -0.016675  -1.305873   0.869654
H   0.755448  -0.158366  -0.184037
H  -0.303787  -1.356920  -0.883358
