butane_opt
 OpenBabel08242015413D

 14 13  0  0  0  0  0  0  0  0999 V2000
   -3.9323    0.2524   -0.0174 C   0  0  0  0  0  0  0  0  0  0  0  0
   -2.6962   -0.6021    0.0856 C   0  0  0  0  0  0  0  0  0  0  0  0
   -4.8410   -0.3447   -0.1434 H   0  0  0  0  0  0  0  0  0  0  0  0
   -3.8032    0.8893   -0.9645 H   0  0  0  0  0  0  0  0  0  0  0  0
   -3.9494    0.8891    0.7982 H   0  0  0  0  0  0  0  0  0  0  0  0
   -1.4158    0.1983    0.0760 C   0  0  0  0  0  0  0  0  0  0  0  0
   -2.6359   -1.2238   -0.7458 H   0  0  0  0  0  0  0  0  0  0  0  0
   -2.7963   -1.2714    0.9803 H   0  0  0  0  0  0  0  0  0  0  0  0
   -0.1796   -0.7117   -0.0127 C   0  0  0  0  0  0  0  0  0  0  0  0
   -1.3800    0.9133    0.9681 H   0  0  0  0  0  0  0  0  0  0  0  0
   -1.3648    0.8544   -0.8383 H   0  0  0  0  0  0  0  0  0  0  0  0
   -0.0167   -1.3059    0.8697 H   0  0  0  0  0  0  0  0  0  0  0  0
    0.7554   -0.1584   -0.1840 H   0  0  0  0  0  0  0  0  0  0  0  0
   -0.3038   -1.3569   -0.8834 H   0  0  0  0  0  0  0  0  0  0  0  0
  1  2  1  0  0  0  0
  1  5  1  0  0  0  0
  2  8  1  0  0  0  0
  3  1  1  0  0  0  0
  4  1  1  0  0  0  0
  6  2  1  0  0  0  0
  6 10  1  0  0  0  0
  7  2  1  0  0  0  0
  9  6  1  0  0  0  0
  9 12  1  0  0  0  0
 11  6  1  0  0  0  0
 13  9  1  0  0  0  0
 14  9  1  0  0  0  0
M  END
$$$$
