butane_opt
 OpenBabel08242015413D

 14 13  0  0  0  0  0  0  0  0999 V2000
   -3.9328    0.2403    0.0784 C   0  0  0  0  0  0  0  0  0  0  0  0
   -2.6820   -0.5839   -0.0030 C   0  0  0  0  0  0  0  0  0  0  0  0
   -4.8876   -0.4206    0.0903 H   0  0  0  0  0  0  0  0  0  0  0  0
   -4.0021    0.8253   -0.7883 H   0  0  0  0  0  0  0  0  0  0  0  0
   -3.8894    1.0346    0.9974 H   0  0  0  0  0  0  0  0  0  0  0  0
   -1.4161    0.1865   -0.0845 C   0  0  0  0  0  0  0  0  0  0  0  0
   -2.7417   -1.2702   -0.8560 H   0  0  0  0  0  0  0  0  0  0  0  0
   -2.7337   -1.1632    0.8563 H   0  0  0  0  0  0  0  0  0  0  0  0
   -0.1609   -0.7028    0.0960 C   0  0  0  0  0  0  0  0  0  0  0  0
   -1.4584    0.8368    0.7344 H   0  0  0  0  0  0  0  0  0  0  0  0
   -1.4212    0.8129   -1.0248 H   0  0  0  0  0  0  0  0  0  0  0  0
   -0.3422   -1.2342    0.9589 H   0  0  0  0  0  0  0  0  0  0  0  0
    0.7550   -0.1367    0.2280 H   0  0  0  0  0  0  0  0  0  0  0  0
    0.0166   -1.4479   -0.7969 H   0  0  0  0  0  0  0  0  0  0  0  0
  1  3  1  0  0  0  0
  1  5  1  0  0  0  0
  2  1  1  0  0  0  0
  2  8  1  0  0  0  0
  4  1  1  0  0  0  0
  6  2  1  0  0  0  0
  6  9  1  0  0  0  0
  6 10  1  0  0  0  0
  7  2  1  0  0  0  0
  9 13  1  0  0  0  0
  9 12  1  0  0  0  0
 11  6  1  0  0  0  0
 14  9  1  0  0  0  0
M  END
$$$$
