14
butane_opt
C  -3.943007   0.271310   0.015982
C  -2.693806  -0.618247   0.045252
H  -4.867796  -0.303920   0.060389
H  -3.967097   0.895573  -0.886148
H  -3.946174   0.891702   0.850343
C  -1.398119   0.177250   0.007791
H  -2.732780  -1.284526  -0.790605
H  -2.723935  -1.233922   0.924313
C  -0.161585  -0.696292   0.033269
H  -1.404398   0.851416   0.843448
H  -1.389029   0.811720  -0.901865
H  -0.210776  -1.201447   0.895491
H   0.764868  -0.086891   0.064396
H  -0.186307  -1.422690  -0.860519
