14
butane_opt
C  -3.953088   0.256593   0.049780
C  -2.705061  -0.598900   0.022907
H  -4.930599  -0.419200  -0.072462
H  -3.889804   0.624732  -0.687155
H  -3.977829   1.076551   1.030462
C  -1.409960   0.208605  -0.049251
H  -2.738269  -1.242300  -0.855419
H  -2.731043  -1.231206   0.912985
C  -0.135811  -0.714653   0.052180
H  -1.454933   0.838326   0.756682
H  -1.375863   0.862501  -0.957019
H  -0.195298  -1.359790   1.029948
H   0.716193  -0.172013   0.134556
H   0.014001  -1.292710  -0.729310
