butane_opt
 OpenBabel08242015413D

 14 13  0  0  0  0  0  0  0  0999 V2000
   -3.9405    0.2704   -0.0411 C   0  0  0  0  0  0  0  0  0  0  0  0
   -2.6848   -0.6302    0.1075 C   0  0  0  0  0  0  0  0  0  0  0  0
   -4.8643   -0.2834   -0.0949 H   0  0  0  0  0  0  0  0  0  0  0  0
   -3.8316    0.8491   -0.9445 H   0  0  0  0  0  0  0  0  0  0  0  0
   -4.0675    1.0287    0.8737 H   0  0  0  0  0  0  0  0  0  0  0  0
   -1.3968    0.1767    0.0513 C   0  0  0  0  0  0  0  0  0  0  0  0
   -2.7415   -1.2270   -0.6968 H   0  0  0  0  0  0  0  0  0  0  0  0
   -2.7161   -1.3570    1.0593 H   0  0  0  0  0  0  0  0  0  0  0  0
   -0.1784   -0.6887   -0.0156 C   0  0  0  0  0  0  0  0  0  0  0  0
   -1.3406    0.9761    0.9381 H   0  0  0  0  0  0  0  0  0  0  0  0
   -1.4841    0.7366   -0.7868 H   0  0  0  0  0  0  0  0  0  0  0  0
   -0.1385   -1.2853    0.8448 H   0  0  0  0  0  0  0  0  0  0  0  0
    0.7858   -0.0584   -0.0487 H   0  0  0  0  0  0  0  0  0  0  0  0
   -0.2246   -1.3874   -0.9231 H   0  0  0  0  0  0  0  0  0  0  0  0
  1  2  1  0  0  0  0
  1  5  1  0  0  0  0
  2  8  1  0  0  0  0
  3  1  1  0  0  0  0
  4  1  1  0  0  0  0
  6  2  1  0  0  0  0
  6 10  1  0  0  0  0
  7  2  1  0  0  0  0
  9  6  1  0  0  0  0
  9 12  1  0  0  0  0
 11  6  1  0  0  0  0
 13  9  1  0  0  0  0
 14  9  1  0  0  0  0
M  END
$$$$
