butane_opt
 OpenBabel08242015413D

 14 13  0  0  0  0  0  0  0  0999 V2000
   -3.9327    0.2853    0.0593 C   0  0  0  0  0  0  0  0  0  0  0  0
   -2.6980   -0.6354    0.0238 C   0  0  0  0  0  0  0  0  0  0  0  0
   -4.8371   -0.3387    0.0240 H   0  0  0  0  0  0  0  0  0  0  0  0
   -3.9765    0.9339   -0.8510 H   0  0  0  0  0  0  0  0  0  0  0  0
   -3.9944    0.8790    0.8614 H   0  0  0  0  0  0  0  0  0  0  0  0
   -1.4118    0.1617   -0.0422 C   0  0  0  0  0  0  0  0  0  0  0  0
   -2.7685   -1.3120   -0.8332 H   0  0  0  0  0  0  0  0  0  0  0  0
   -2.6206   -1.2396    0.8749 H   0  0  0  0  0  0  0  0  0  0  0  0
   -0.1589   -0.6848    0.0593 C   0  0  0  0  0  0  0  0  0  0  0  0
   -1.4183    0.8272    0.8013 H   0  0  0  0  0  0  0  0  0  0  0  0
   -1.3992    0.8841   -0.9469 H   0  0  0  0  0  0  0  0  0  0  0  0
   -0.2908   -1.1293    0.8803 H   0  0  0  0  0  0  0  0  0  0  0  0
    0.7823   -0.0540    0.2493 H   0  0  0  0  0  0  0  0  0  0  0  0
   -0.0860   -1.4499   -0.8477 H   0  0  0  0  0  0  0  0  0  0  0  0
  1  5  1  0  0  0  0
  2  1  1  0  0  0  0
  2  8  1  0  0  0  0
  3  1  1  0  0  0  0
  4  1  1  0  0  0  0
  6  2  1  0  0  0  0
  6  9  1  0  0  0  0
  6 10  1  0  0  0  0
  7  2  1  0  0  0  0
  9 13  1  0  0  0  0
  9 12  1  0  0  0  0
 11  6  1  0  0  0  0
 14  9  1  0  0  0  0
M  END
$$$$
