14
butane_opt
C  -3.950382   0.282804   0.046310
C  -2.673948  -0.622603   0.027571
H  -4.886397  -0.348365  -0.140280
H  -3.890736   0.717198  -0.752370
H  -4.043513   1.087820   1.040990
C  -1.410028   0.159756  -0.026261
H  -2.707410  -1.309469  -0.883438
H  -2.702615  -1.295360   0.947461
C  -0.179286  -0.674587   0.069998
H  -1.452947   0.732690   0.741492
H  -1.330785   0.901475  -1.007833
H  -0.129219  -1.294004   0.937765
H   0.776953  -0.019510  -0.002823
H  -0.108126  -1.383613  -0.839927
