14
butane_opt
C  -3.940459   0.270433  -0.041072
C  -2.684788  -0.630212   0.107476
H  -4.864332  -0.283361  -0.094882
H  -3.831611   0.849052  -0.944527
H  -4.067493   1.028677   0.873668
C  -1.396814   0.176668   0.051313
H  -2.741490  -1.226974  -0.696780
H  -2.716129  -1.357028   1.059269
C  -0.178395  -0.688684  -0.015561
H  -1.340558   0.976110   0.938083
H  -1.484110   0.736619  -0.786825
H  -0.138462  -1.285286   0.844808
H   0.785791  -0.058437  -0.048695
H  -0.224621  -1.387430  -0.923116
