14
butane_opt
C  -3.932680   0.285307   0.059277
C  -2.698019  -0.635415   0.023752
H  -4.837059  -0.338666   0.024023
H  -3.976541   0.933905  -0.850951
H  -3.994394   0.879044   0.861357
C  -1.411821   0.161693  -0.042172
H  -2.768528  -1.312003  -0.833207
H  -2.620637  -1.239605   0.874870
C  -0.158866  -0.684813   0.059347
H  -1.418300   0.827228   0.801308
H  -1.399205   0.884112  -0.946852
H  -0.290817  -1.129272   0.880274
H   0.782332  -0.053988   0.249307
H  -0.086033  -1.449924  -0.847716
