butane_opt
 OpenBabel08242015413D

 14 13  0  0  0  0  0  0  0  0999 V2000
   -3.9531    0.2566    0.0498 C   0  0  0  0  0  0  0  0  0  0  0  0
   -2.7051   -0.5989    0.0229 C   0  0  0  0  0  0  0  0  0  0  0  0
   -4.9306   -0.4192   -0.0725 H   0  0  0  0  0  0  0  0  0  0  0  0
   -3.8898    0.6247   -0.6872 H   0  0  0  0  0  0  0  0  0  0  0  0
   -3.9778    1.0766    1.0305 H   0  0  0  0  0  0  0  0  0  0  0  0
   -1.4100    0.2086   -0.0493 C   0  0  0  0  0  0  0  0  0  0  0  0
   -2.7383   -1.2423   -0.8554 H   0  0  0  0  0  0  0  0  0  0  0  0
   -2.7310   -1.2312    0.9130 H   0  0  0  0  0  0  0  0  0  0  0  0
   -0.1358   -0.7147    0.0522 C   0  0  0  0  0  0  0  0  0  0  0  0
   -1.4549    0.8383    0.7567 H   0  0  0  0  0  0  0  0  0  0  0  0
   -1.3759    0.8625   -0.9570 H   0  0  0  0  0  0  0  0  0  0  0  0
   -0.1953   -1.3598    1.0299 H   0  0  0  0  0  0  0  0  0  0  0  0
    0.7162   -0.1720    0.1346 H   0  0  0  0  0  0  0  0  0  0  0  0
    0.0140   -1.2927   -0.7293 H   0  0  0  0  0  0  0  0  0  0  0  0
  1  5  1  0  0  0  0
  2  1  1  0  0  0  0
  2  8  1  0  0  0  0
  3  1  1  0  0  0  0
  4  1  1  0  0  0  0
  6  2  1  0  0  0  0
  6  9  1  0  0  0  0
  6 10  1  0  0  0  0
  7  2  1  0  0  0  0
  9 13  1  0  0  0  0
  9 12  1  0  0  0  0
 11  6  1  0  0  0  0
 14  9  1  0  0  0  0
M  END
$$$$
