14
butane_opt
C  -3.932840   0.240251   0.078350
C  -2.682025  -0.583940  -0.003003
H  -4.887553  -0.420636   0.090317
H  -4.002055   0.825280  -0.788253
H  -3.889414   1.034643   0.997379
C  -1.416075   0.186469  -0.084454
H  -2.741655  -1.270236  -0.856006
H  -2.733686  -1.163162   0.856278
C  -0.160926  -0.702783   0.096010
H  -1.458354   0.836775   0.734356
H  -1.421175   0.812877  -1.024760
H  -0.342248  -1.234247   0.958927
H   0.754981  -0.136744   0.227983
H   0.016602  -1.447948  -0.796879
