butane_opt
 OpenBabel08242015413D

 14 13  0  0  0  0  0  0  0  0999 V2000
   -3.9532    0.2562    0.0419 C   0  0  0  0  0  0  0  0  0  0  0  0
   -2.7109   -0.6125    0.0174 C   0  0  0  0  0  0  0  0  0  0  0  0
   -4.8590   -0.3470    0.0009 H   0  0  0  0  0  0  0  0  0  0  0  0
   -3.9328    0.8492   -0.8303 H   0  0  0  0  0  0  0  0  0  0  0  0
   -3.9612    0.9828    0.9271 H   0  0  0  0  0  0  0  0  0  0  0  0
   -1.4051    0.1909   -0.0077 C   0  0  0  0  0  0  0  0  0  0  0  0
   -2.7854   -1.3464   -0.8921 H   0  0  0  0  0  0  0  0  0  0  0  0
   -2.6818   -1.1708    0.8363 H   0  0  0  0  0  0  0  0  0  0  0  0
   -0.1420   -0.7008    0.0547 C   0  0  0  0  0  0  0  0  0  0  0  0
   -1.4385    0.8938    0.8550 H   0  0  0  0  0  0  0  0  0  0  0  0
   -1.3997    0.8601   -0.9280 H   0  0  0  0  0  0  0  0  0  0  0  0
   -0.0414   -1.4540    1.0372 H   0  0  0  0  0  0  0  0  0  0  0  0
    0.7569   -0.1008   -0.0744 H   0  0  0  0  0  0  0  0  0  0  0  0
   -0.1534   -1.2459   -0.7482 H   0  0  0  0  0  0  0  0  0  0  0  0
  1  5  1  0  0  0  0
  2  1  1  0  0  0  0
  2  8  1  0  0  0  0
  3  1  1  0  0  0  0
  4  1  1  0  0  0  0
  6  2  1  0  0  0  0
  6  9  1  0  0  0  0
  6 10  1  0  0  0  0
  7  2  1  0  0  0  0
  9 12  1  0  0  0  0
 11  6  1  0  0  0  0
 13  9  1  0  0  0  0
 14  9  1  0  0  0  0
M  END
$$$$
