butane_opt
 OpenBabel08242015413D

 14 13  0  0  0  0  0  0  0  0999 V2000
   -3.9708    0.2776   -0.0026 C   0  0  0  0  0  0  0  0  0  0  0  0
   -2.7074   -0.6260    0.0660 C   0  0  0  0  0  0  0  0  0  0  0  0
   -4.8933   -0.3378   -0.1264 H   0  0  0  0  0  0  0  0  0  0  0  0
   -3.9252    0.7820   -0.8465 H   0  0  0  0  0  0  0  0  0  0  0  0
   -4.0734    1.0043    0.8978 H   0  0  0  0  0  0  0  0  0  0  0  0
   -1.3767    0.1906    0.0324 C   0  0  0  0  0  0  0  0  0  0  0  0
   -2.7024   -1.2660   -0.7465 H   0  0  0  0  0  0  0  0  0  0  0  0
   -2.7415   -1.2774    1.0447 H   0  0  0  0  0  0  0  0  0  0  0  0
   -0.1406   -0.6993    0.0122 C   0  0  0  0  0  0  0  0  0  0  0  0
   -1.4372    0.7862    0.8221 H   0  0  0  0  0  0  0  0  0  0  0  0
   -1.3505    0.8376   -0.8707 H   0  0  0  0  0  0  0  0  0  0  0  0
   -0.1131   -1.2353    0.8559 H   0  0  0  0  0  0  0  0  0  0  0  0
    0.7480   -0.0828   -0.0462 H   0  0  0  0  0  0  0  0  0  0  0  0
   -0.1801   -1.4029   -0.8492 H   0  0  0  0  0  0  0  0  0  0  0  0
  1  2  1  0  0  0  0
  1  5  1  0  0  0  0
  2  8  1  0  0  0  0
  3  1  1  0  0  0  0
  4  1  1  0  0  0  0
  6  2  1  0  0  0  0
  6 10  1  0  0  0  0
  7  2  1  0  0  0  0
  9  6  1  0  0  0  0
  9 12  1  0  0  0  0
 11  6  1  0  0  0  0
 13  9  1  0  0  0  0
 14  9  1  0  0  0  0
M  END
$$$$
