14
butane_opt
C  -3.941357   0.255282   0.064269
C  -2.700655  -0.594708  -0.008086
H  -4.931126  -0.401967   0.163961
H  -4.020294   0.950506  -0.879648
H  -3.856443   0.845576   0.887638
C  -1.400563   0.194959  -0.025255
H  -2.809517  -1.428938  -0.998316
H  -2.614179  -1.115958   0.773043
C  -0.154378  -0.716191   0.077755
H  -1.426571   0.906713   0.815502
H  -1.299368   0.873724  -0.925481
H  -0.160583  -1.410226   1.002053
H   0.675786  -0.142559  -0.016347
H  -0.186626  -1.239584  -0.690877
