butane_opt
 OpenBabel08242015413D

 14 13  0  0  0  0  0  0  0  0999 V2000
   -3.9452    0.2917   -0.0332 C   0  0  0  0  0  0  0  0  0  0  0  0
   -2.6827   -0.6322    0.1087 C   0  0  0  0  0  0  0  0  0  0  0  0
   -4.8764   -0.3224   -0.1776 H   0  0  0  0  0  0  0  0  0  0  0  0
   -3.8474    0.7888   -0.8705 H   0  0  0  0  0  0  0  0  0  0  0  0
   -4.0597    1.0182    0.8458 H   0  0  0  0  0  0  0  0  0  0  0  0
   -1.3870    0.1432    0.0350 C   0  0  0  0  0  0  0  0  0  0  0  0
   -2.6150   -1.1534   -0.6210 H   0  0  0  0  0  0  0  0  0  0  0  0
   -2.7257   -1.3527    1.0620 H   0  0  0  0  0  0  0  0  0  0  0  0
   -0.2002   -0.6760   -0.0133 C   0  0  0  0  0  0  0  0  0  0  0  0
   -1.3635    0.9163    0.9562 H   0  0  0  0  0  0  0  0  0  0  0  0
   -1.3970    0.7695   -0.7950 H   0  0  0  0  0  0  0  0  0  0  0  0
   -0.0899   -1.2281    0.7527 H   0  0  0  0  0  0  0  0  0  0  0  0
    0.7883   -0.0214    0.0417 H   0  0  0  0  0  0  0  0  0  0  0  0
   -0.2681   -1.4069   -0.9138 H   0  0  0  0  0  0  0  0  0  0  0  0
  1  2  1  0  0  0  0
  1  5  1  0  0  0  0
  2  8  1  0  0  0  0
  3  1  1  0  0  0  0
  4  1  1  0  0  0  0
  6  2  1  0  0  0  0
  6 10  1  0  0  0  0
  7  2  1  0  0  0  0
  9  6  1  0  0  0  0
  9 13  1  0  0  0  0
  9 12  1  0  0  0  0
 11  6  1  0  0  0  0
 14  9  1  0  0  0  0
M  END
$$$$
