14
butane_opt
C  -3.950913   0.240795  -0.024933
C  -2.688803  -0.585738   0.112683
H  -4.927473  -0.426346   0.098539
H  -3.911138   0.961886  -1.002953
H  -3.949706   0.796921   0.768281
C  -1.410725   0.199946   0.031793
H  -2.682750  -1.248454  -0.746264
H  -2.776841  -1.148300   1.003553
C  -0.140540  -0.706494  -0.012679
H  -1.391365   0.887052   0.866108
H  -1.466302   0.796873  -0.859746
H  -0.214156  -1.126643   0.708247
H   0.680741  -0.202614   0.274116
H  -0.064513  -1.569436  -0.972230
