butane_opt
 OpenBabel08242015413D

 14 13  0  0  0  0  0  0  0  0999 V2000
   -3.9482    0.2588    0.0447 C   0  0  0  0  0  0  0  0  0  0  0  0
   -2.7188   -0.6156    0.0309 C   0  0  0  0  0  0  0  0  0  0  0  0
   -4.8683   -0.3238   -0.1855 H   0  0  0  0  0  0  0  0  0  0  0  0
   -3.7655    0.6649   -0.7426 H   0  0  0  0  0  0  0  0  0  0  0  0
   -4.0334    1.0638    1.0014 H   0  0  0  0  0  0  0  0  0  0  0  0
   -1.4094    0.2128   -0.0208 C   0  0  0  0  0  0  0  0  0  0  0  0
   -2.8024   -1.3038   -0.8343 H   0  0  0  0  0  0  0  0  0  0  0  0
   -2.6344   -1.1874    0.8815 H   0  0  0  0  0  0  0  0  0  0  0  0
   -0.1489   -0.7120    0.0609 C   0  0  0  0  0  0  0  0  0  0  0  0
   -1.3706    0.7926    0.7618 H   0  0  0  0  0  0  0  0  0  0  0  0
   -1.3489    0.9214   -0.9389 H   0  0  0  0  0  0  0  0  0  0  0  0
   -0.0927   -1.3940    0.9799 H   0  0  0  0  0  0  0  0  0  0  0  0
    0.6876   -0.1704   -0.0783 H   0  0  0  0  0  0  0  0  0  0  0  0
   -0.0905   -1.2791   -0.7747 H   0  0  0  0  0  0  0  0  0  0  0  0
  1  5  1  0  0  0  0
  2  1  1  0  0  0  0
  2  8  1  0  0  0  0
  3  1  1  0  0  0  0
  4  1  1  0  0  0  0
  6  2  1  0  0  0  0
  6  9  1  0  0  0  0
  6 10  1  0  0  0  0
  7  2  1  0  0  0  0
  9 12  1  0  0  0  0
 11  6  1  0  0  0  0
 13  9  1  0  0  0  0
 14  9  1  0  0  0  0
M  END
$$$$
