butane_opt
 OpenBabel08242015413D

 14 13  0  0  0  0  0  0  0  0999 V2000
   -3.9367    0.2598    0.0742 C   0  0  0  0  0  0  0  0  0  0  0  0
   -2.7275   -0.6027   -0.0029 C   0  0  0  0  0  0  0  0  0  0  0  0
   -4.8839   -0.3506    0.0892 H   0  0  0  0  0  0  0  0  0  0  0  0
   -3.9847    0.7946   -0.8251 H   0  0  0  0  0  0  0  0  0  0  0  0
   -3.9004    1.0219    1.0048 H   0  0  0  0  0  0  0  0  0  0  0  0
   -1.4133    0.2025   -0.0844 C   0  0  0  0  0  0  0  0  0  0  0  0
   -2.8605   -1.3098   -0.8894 H   0  0  0  0  0  0  0  0  0  0  0  0
   -2.6315   -1.2937    0.9045 H   0  0  0  0  0  0  0  0  0  0  0  0
   -0.1260   -0.7101    0.0899 C   0  0  0  0  0  0  0  0  0  0  0  0
   -1.4332    0.8507    0.7528 H   0  0  0  0  0  0  0  0  0  0  0  0
   -1.3189    0.8465   -0.9505 H   0  0  0  0  0  0  0  0  0  0  0  0
   -0.2963   -1.2762    0.9809 H   0  0  0  0  0  0  0  0  0  0  0  0
    0.7666   -0.0994    0.2743 H   0  0  0  0  0  0  0  0  0  0  0  0
   -0.0276   -1.4585   -0.8305 H   0  0  0  0  0  0  0  0  0  0  0  0
  1  3  1  0  0  0  0
  1  5  1  0  0  0  0
  2  1  1  0  0  0  0
  2  8  1  0  0  0  0
  4  1  1  0  0  0  0
  6  2  1  0  0  0  0
  6  9  1  0  0  0  0
  6 10  1  0  0  0  0
  7  2  1  0  0  0  0
  9 13  1  0  0  0  0
  9 12  1  0  0  0  0
 11  6  1  0  0  0  0
 14  9  1  0  0  0  0
M  END
$$$$
