14
butane_opt
C  -3.926257   0.235305  -0.023896
C  -2.689778  -0.584381   0.051490
H  -4.814889  -0.318941   0.117143
H  -4.004167   0.917749  -0.941918
H  -3.860659   0.884456   0.806004
C  -1.414252   0.199474   0.072284
H  -2.719597  -1.265405  -0.836872
H  -2.776214  -1.307535   1.016409
C  -0.166809  -0.705550  -0.006899
H  -1.434953   0.940813   0.947595
H  -1.503994   0.769609  -0.800533
H  -0.038164  -1.418958   0.919242
H   0.725876  -0.117625  -0.082739
H  -0.228229  -1.284875  -0.808977
