14
butane_opt
C  -3.970787   0.277583  -0.002564
C  -2.707356  -0.626046   0.066036
H  -4.893264  -0.337770  -0.126378
H  -3.925195   0.781960  -0.846536
H  -4.073416   1.004276   0.897804
C  -1.376745   0.190631   0.032383
H  -2.702381  -1.266038  -0.746501
H  -2.741454  -1.277412   1.044695
C  -0.140586  -0.699250   0.012196
H  -1.437177   0.786180   0.822131
H  -1.350536   0.837582  -0.870673
H  -0.113098  -1.235309   0.855896
H   0.747970  -0.082765  -0.046217
H  -0.180092  -1.402927  -0.849158
