butane_opt
 OpenBabel08242015413D

 14 13  0  0  0  0  0  0  0  0999 V2000
   -3.9414    0.2553    0.0643 C   0  0  0  0  0  0  0  0  0  0  0  0
   -2.7007   -0.5947   -0.0081 C   0  0  0  0  0  0  0  0  0  0  0  0
   -4.9311   -0.4020    0.1640 H   0  0  0  0  0  0  0  0  0  0  0  0
   -4.0203    0.9505   -0.8796 H   0  0  0  0  0  0  0  0  0  0  0  0
   -3.8564    0.8456    0.8876 H   0  0  0  0  0  0  0  0  0  0  0  0
   -1.4006    0.1950   -0.0253 C   0  0  0  0  0  0  0  0  0  0  0  0
   -2.8095   -1.4289   -0.9983 H   0  0  0  0  0  0  0  0  0  0  0  0
   -2.6142   -1.1160    0.7730 H   0  0  0  0  0  0  0  0  0  0  0  0
   -0.1544   -0.7162    0.0778 C   0  0  0  0  0  0  0  0  0  0  0  0
   -1.4266    0.9067    0.8155 H   0  0  0  0  0  0  0  0  0  0  0  0
   -1.2994    0.8737   -0.9255 H   0  0  0  0  0  0  0  0  0  0  0  0
   -0.1606   -1.4102    1.0021 H   0  0  0  0  0  0  0  0  0  0  0  0
    0.6758   -0.1426   -0.0163 H   0  0  0  0  0  0  0  0  0  0  0  0
   -0.1866   -1.2396   -0.6909 H   0  0  0  0  0  0  0  0  0  0  0  0
  1  3  1  0  0  0  0
  1  5  1  0  0  0  0
  2  1  1  0  0  0  0
  2  8  1  0  0  0  0
  4  1  1  0  0  0  0
  6  2  1  0  0  0  0
  6  9  1  0  0  0  0
  6 10  1  0  0  0  0
  7  2  1  0  0  0  0
  9 12  1  0  0  0  0
 11  6  1  0  0  0  0
 13  9  1  0  0  0  0
 14  9  1  0  0  0  0
M  END
$$$$
