14
butane_opt
C  -3.922895   0.254550   0.057102
C  -2.707125  -0.600459   0.001728
H  -4.864886  -0.362998   0.094933
H  -3.955129   0.823386  -0.833163
H  -3.910473   0.933113   0.932386
C  -1.421752   0.197101  -0.037603
H  -2.727483  -1.257417  -0.834989
H  -2.703385  -1.243181   0.893730
C  -0.150565  -0.707859   0.070067
H  -1.470018   0.813937   0.793041
H  -1.390784   0.867420  -0.968553
H  -0.208842  -1.236666   0.918556
H   0.737906  -0.122409   0.171932
H  -0.095084  -1.413755  -0.823243
