butane_opt
 OpenBabel08242015413D

 14 13  0  0  0  0  0  0  0  0999 V2000
   -3.9622    0.2713    0.0450 C   0  0  0  0  0  0  0  0  0  0  0  0
   -2.6875   -0.6295   -0.0075 C   0  0  0  0  0  0  0  0  0  0  0  0
   -4.8627   -0.3178    0.0148 H   0  0  0  0  0  0  0  0  0  0  0  0
   -3.9698    0.8079   -0.8449 H   0  0  0  0  0  0  0  0  0  0  0  0
   -4.0559    1.0138    0.9839 H   0  0  0  0  0  0  0  0  0  0  0  0
   -1.4016    0.1893    0.0106 C   0  0  0  0  0  0  0  0  0  0  0  0
   -2.7115   -1.4044   -0.9103 H   0  0  0  0  0  0  0  0  0  0  0  0
   -2.7605   -1.2176    0.8872 H   0  0  0  0  0  0  0  0  0  0  0  0
   -0.1629   -0.6801    0.0664 C   0  0  0  0  0  0  0  0  0  0  0  0
   -1.4152    0.8284    0.8146 H   0  0  0  0  0  0  0  0  0  0  0  0
   -1.2960    0.8616   -0.9178 H   0  0  0  0  0  0  0  0  0  0  0  0
    0.0626   -1.5174    1.0547 H   0  0  0  0  0  0  0  0  0  0  0  0
    0.7354   -0.1042   -0.2566 H   0  0  0  0  0  0  0  0  0  0  0  0
   -0.1877   -1.2201   -0.7311 H   0  0  0  0  0  0  0  0  0  0  0  0
  1  5  1  0  0  0  0
  2  6  1  0  0  0  0
  2  1  1  0  0  0  0
  2  8  1  0  0  0  0
  3  1  1  0  0  0  0
  4  1  1  0  0  0  0
  6  9  1  0  0  0  0
  6 10  1  0  0  0  0
  7  2  1  0  0  0  0
  9 12  1  0  0  0  0
 11  6  1  0  0  0  0
 13  9  1  0  0  0  0
 14  9  1  0  0  0  0
M  END
$$$$
