14
butane_opt
C  -3.940951   0.244143  -0.025751
C  -2.683361  -0.584393   0.076502
H  -4.894210  -0.447939   0.173022
H  -3.984550   0.996279  -1.046005
H  -3.863234   0.821223   0.752392
C  -1.410154   0.194227   0.043256
H  -2.673322  -1.198352  -0.699716
H  -2.765177  -1.235220   1.016460
C  -0.163268  -0.704006  -0.008088
H  -1.331953   0.943170   0.980001
H  -1.495385   0.707352  -0.780701
H  -0.175764  -1.204506   0.838546
H   0.691783  -0.183566   0.116368
H  -0.138607  -1.481954  -0.959304
