14
butane_opt
C  -3.946445   0.271530  -0.008058
C  -2.687426  -0.604382   0.087742
H  -4.880066  -0.349685   0.063818
H  -3.823262   1.001211  -1.042364
H  -4.013620   0.813983   0.789203
C  -1.403648   0.154601   0.032212
H  -2.685277  -1.292574  -0.724580
H  -2.763103  -1.238904   0.964424
C  -0.180032  -0.683179  -0.001980
H  -1.367045   0.879104   0.957827
H  -1.378137   0.826931  -0.866739
H  -0.117103  -1.149775   0.813990
H   0.753819  -0.066716   0.132474
H  -0.155464  -1.554082  -0.989697
