butane_opt
 OpenBabel08242015413D

 14 13  0  0  0  0  0  0  0  0999 V2000
   -3.9660    0.2827   -0.0093 C   0  0  0  0  0  0  0  0  0  0  0  0
   -2.6939   -0.6415    0.0788 C   0  0  0  0  0  0  0  0  0  0  0  0
   -4.8165   -0.2931    0.0879 H   0  0  0  0  0  0  0  0  0  0  0  0
   -3.9789    0.9456   -0.9004 H   0  0  0  0  0  0  0  0  0  0  0  0
   -4.0573    0.8774    0.8160 H   0  0  0  0  0  0  0  0  0  0  0  0
   -1.3838    0.1725   -0.0028 C   0  0  0  0  0  0  0  0  0  0  0  0
   -2.7893   -1.1815   -0.6845 H   0  0  0  0  0  0  0  0  0  0  0  0
   -2.6776   -1.3321    0.9801 H   0  0  0  0  0  0  0  0  0  0  0  0
   -0.1729   -0.6831    0.0144 C   0  0  0  0  0  0  0  0  0  0  0  0
   -1.2995    0.9307    0.9154 H   0  0  0  0  0  0  0  0  0  0  0  0
   -1.3294    0.7411   -0.8462 H   0  0  0  0  0  0  0  0  0  0  0  0
   -0.1819   -1.0824    0.7739 H   0  0  0  0  0  0  0  0  0  0  0  0
    0.7260   -0.1143    0.2560 H   0  0  0  0  0  0  0  0  0  0  0  0
   -0.0280   -1.5346   -0.9598 H   0  0  0  0  0  0  0  0  0  0  0  0
  1  2  1  0  0  0  0
  1  3  1  0  0  0  0
  1  5  1  0  0  0  0
  2  8  1  0  0  0  0
  4  1  1  0  0  0  0
  6  9  1  0  0  0  0
  6  2  1  0  0  0  0
  6 10  1  0  0  0  0
  7  2  1  0  0  0  0
  9 13  1  0  0  0  0
  9 12  1  0  0  0  0
 11  6  1  0  0  0  0
 14  9  1  0  0  0  0
M  END
$$$$
