14
butane_opt
C  -3.929929   0.242479  -0.023699
C  -2.701354  -0.572136   0.063823
H  -4.939836  -0.434710   0.225203
H  -3.929764   1.006767  -1.025585
H  -3.876675   0.773893   0.764511
C  -1.395895   0.186631   0.076491
H  -2.669490  -1.220682  -0.798170
H  -2.793993  -1.202242   0.986033
C  -0.184757  -0.713184  -0.006845
H  -1.433325   0.917818   0.929225
H  -1.407895   0.857416  -0.878127
H  -0.074898  -1.279937   0.818303
H   0.755503  -0.136239   0.034913
H  -0.102567  -1.491263  -0.947933
