14
butane_opt
C  -3.931331   0.244340   0.085861
C  -2.718968  -0.601876  -0.059147
H  -4.825092  -0.382446   0.246082
H  -4.116468   0.952276  -0.817502
H  -3.882590   0.863661   0.928222
C  -1.395620   0.212925  -0.055136
H  -2.870256  -1.249765  -0.856543
H  -2.702935  -1.173519   0.803553
C  -0.151213  -0.715893   0.099769
H  -1.450838   0.901876   0.783570
H  -1.398712   0.854835  -0.946675
H  -0.129461  -1.383236   1.036717
H   0.767955  -0.142611   0.153566
H  -0.043024  -1.390934  -0.752011
