butane_opt
 OpenBabel08242015413D

 14 13  0  0  0  0  0  0  0  0999 V2000
   -3.9348    0.2744    0.0584 C   0  0  0  0  0  0  0  0  0  0  0  0
   -2.7040   -0.6277   -0.0075 C   0  0  0  0  0  0  0  0  0  0  0  0
   -4.8283   -0.3119    0.1847 H   0  0  0  0  0  0  0  0  0  0  0  0
   -4.0298    0.9842   -0.9146 H   0  0  0  0  0  0  0  0  0  0  0  0
   -3.9164    0.8967    0.8751 H   0  0  0  0  0  0  0  0  0  0  0  0
   -1.4047    0.1769   -0.0149 C   0  0  0  0  0  0  0  0  0  0  0  0
   -2.7510   -1.3977   -0.9222 H   0  0  0  0  0  0  0  0  0  0  0  0
   -2.6507   -1.2129    0.8524 H   0  0  0  0  0  0  0  0  0  0  0  0
   -0.1617   -0.6862    0.0616 C   0  0  0  0  0  0  0  0  0  0  0  0
   -1.4513    0.8355    0.8329 H   0  0  0  0  0  0  0  0  0  0  0  0
   -1.3233    0.8137   -0.9362 H   0  0  0  0  0  0  0  0  0  0  0  0
   -0.2034   -1.3362    1.0022 H   0  0  0  0  0  0  0  0  0  0  0  0
    0.7613   -0.0713    0.0793 H   0  0  0  0  0  0  0  0  0  0  0  0
   -0.1697   -1.3093   -0.7883 H   0  0  0  0  0  0  0  0  0  0  0  0
  1  3  1  0  0  0  0
  1  5  1  0  0  0  0
  2  1  1  0  0  0  0
  2  8  1  0  0  0  0
  4  1  1  0  0  0  0
  6  2  1  0  0  0  0
  6  9  1  0  0  0  0
  6 10  1  0  0  0  0
  7  2  1  0  0  0  0
  9 13  1  0  0  0  0
  9 12  1  0  0  0  0
 11  6  1  0  0  0  0
 14  9  1  0  0  0  0
M  END
$$$$
