butane_opt
 OpenBabel08242015413D

 14 13  0  0  0  0  0  0  0  0999 V2000
   -3.9672    0.2572    0.0217 C   0  0  0  0  0  0  0  0  0  0  0  0
   -2.7146   -0.6044    0.0058 C   0  0  0  0  0  0  0  0  0  0  0  0
   -4.9207   -0.3616    0.0237 H   0  0  0  0  0  0  0  0  0  0  0  0
   -3.9613    0.7618   -0.7846 H   0  0  0  0  0  0  0  0  0  0  0  0
   -3.9014    0.9701    0.8830 H   0  0  0  0  0  0  0  0  0  0  0  0
   -1.4014    0.2003    0.0214 C   0  0  0  0  0  0  0  0  0  0  0  0
   -2.7058   -1.2858   -0.8390 H   0  0  0  0  0  0  0  0  0  0  0  0
   -2.7561   -1.2788    0.9550 H   0  0  0  0  0  0  0  0  0  0  0  0
   -0.1336   -0.7043    0.0418 C   0  0  0  0  0  0  0  0  0  0  0  0
   -1.3867    0.9431    0.8762 H   0  0  0  0  0  0  0  0  0  0  0  0
   -1.4813    0.8538   -0.8605 H   0  0  0  0  0  0  0  0  0  0  0  0
    0.0514   -1.5194    1.0211 H   0  0  0  0  0  0  0  0  0  0  0  0
    0.7619   -0.1166   -0.1436 H   0  0  0  0  0  0  0  0  0  0  0  0
   -0.1324   -1.2291   -0.7443 H   0  0  0  0  0  0  0  0  0  0  0  0
  1  3  1  0  0  0  0
  1  5  1  0  0  0  0
  2  6  1  0  0  0  0
  2  1  1  0  0  0  0
  2  8  1  0  0  0  0
  4  1  1  0  0  0  0
  6  9  1  0  0  0  0
  6 10  1  0  0  0  0
  7  2  1  0  0  0  0
  9 12  1  0  0  0  0
 11  6  1  0  0  0  0
 13  9  1  0  0  0  0
 14  9  1  0  0  0  0
M  END
$$$$
