butane_opt
 OpenBabel08242015413D

 14 13  0  0  0  0  0  0  0  0999 V2000
   -3.9443    0.2392   -0.0304 C   0  0  0  0  0  0  0  0  0  0  0  0
   -2.7131   -0.5997    0.1181 C   0  0  0  0  0  0  0  0  0  0  0  0
   -4.8341   -0.3684   -0.2321 H   0  0  0  0  0  0  0  0  0  0  0  0
   -3.7191    0.7795   -0.9143 H   0  0  0  0  0  0  0  0  0  0  0  0
   -4.1147    1.0769    0.9054 H   0  0  0  0  0  0  0  0  0  0  0  0
   -1.3953    0.2172    0.0565 C   0  0  0  0  0  0  0  0  0  0  0  0
   -2.7063   -1.2588   -0.7218 H   0  0  0  0  0  0  0  0  0  0  0  0
   -2.8325   -1.2541    1.0337 H   0  0  0  0  0  0  0  0  0  0  0  0
   -0.1488   -0.7211   -0.0212 C   0  0  0  0  0  0  0  0  0  0  0  0
   -1.3234    0.8494    0.9177 H   0  0  0  0  0  0  0  0  0  0  0  0
   -1.5846    0.9356   -0.8761 H   0  0  0  0  0  0  0  0  0  0  0  0
   -0.0756   -1.3302    0.8538 H   0  0  0  0  0  0  0  0  0  0  0  0
    0.7400   -0.1322   -0.0256 H   0  0  0  0  0  0  0  0  0  0  0  0
   -0.1523   -1.4061   -0.9472 H   0  0  0  0  0  0  0  0  0  0  0  0
  1  2  1  0  0  0  0
  1  5  1  0  0  0  0
  2  8  1  0  0  0  0
  3  1  1  0  0  0  0
  4  1  1  0  0  0  0
  6  2  1  0  0  0  0
  6 10  1  0  0  0  0
  7  2  1  0  0  0  0
  9  6  1  0  0  0  0
  9 12  1  0  0  0  0
 11  6  1  0  0  0  0
 13  9  1  0  0  0  0
 14  9  1  0  0  0  0
M  END
$$$$
