14
butane_opt
C  -3.943789   0.274073   0.027399
C  -2.693130  -0.632295   0.004132
H  -4.854528  -0.300846   0.229209
H  -4.149180   0.981024  -0.935509
H  -3.788753   0.884041   0.886750
C  -1.416913   0.162884  -0.000237
H  -2.684029  -1.313452  -0.823544
H  -2.693608  -1.219113   0.894061
C  -0.153720  -0.678512   0.048002
H  -1.444212   0.920964   0.892448
H  -1.317813   0.795777  -0.896538
H  -0.229147  -1.299432   0.973439
H   0.802246  -0.059296   0.036774
H  -0.176173  -1.369519  -0.790466
