butane_opt
 OpenBabel08242015413D

 14 13  0  0  0  0  0  0  0  0999 V2000
   -3.9438    0.2741    0.0274 C   0  0  0  0  0  0  0  0  0  0  0  0
   -2.6931   -0.6323    0.0041 C   0  0  0  0  0  0  0  0  0  0  0  0
   -4.8545   -0.3008    0.2292 H   0  0  0  0  0  0  0  0  0  0  0  0
   -4.1492    0.9810   -0.9355 H   0  0  0  0  0  0  0  0  0  0  0  0
   -3.7888    0.8840    0.8868 H   0  0  0  0  0  0  0  0  0  0  0  0
   -1.4169    0.1629   -0.0002 C   0  0  0  0  0  0  0  0  0  0  0  0
   -2.6840   -1.3135   -0.8235 H   0  0  0  0  0  0  0  0  0  0  0  0
   -2.6936   -1.2191    0.8941 H   0  0  0  0  0  0  0  0  0  0  0  0
   -0.1537   -0.6785    0.0480 C   0  0  0  0  0  0  0  0  0  0  0  0
   -1.4442    0.9210    0.8924 H   0  0  0  0  0  0  0  0  0  0  0  0
   -1.3178    0.7958   -0.8965 H   0  0  0  0  0  0  0  0  0  0  0  0
   -0.2291   -1.2994    0.9734 H   0  0  0  0  0  0  0  0  0  0  0  0
    0.8022   -0.0593    0.0368 H   0  0  0  0  0  0  0  0  0  0  0  0
   -0.1762   -1.3695   -0.7905 H   0  0  0  0  0  0  0  0  0  0  0  0
  1  3  1  0  0  0  0
  1  5  1  0  0  0  0
  2  1  1  0  0  0  0
  2  8  1  0  0  0  0
  4  1  1  0  0  0  0
  6  2  1  0  0  0  0
  6  9  1  0  0  0  0
  6 10  1  0  0  0  0
  7  2  1  0  0  0  0
  9 12  1  0  0  0  0
 11  6  1  0  0  0  0
 13  9  1  0  0  0  0
 14  9  1  0  0  0  0
M  END
$$$$
