butane_opt
 OpenBabel08242015413D

 14 13  0  0  0  0  0  0  0  0999 V2000
   -3.9535    0.2506    0.0515 C   0  0  0  0  0  0  0  0  0  0  0  0
   -2.7086   -0.5925    0.0061 C   0  0  0  0  0  0  0  0  0  0  0  0
   -4.9032   -0.3607    0.1478 H   0  0  0  0  0  0  0  0  0  0  0  0
   -3.9822    0.8739   -0.8748 H   0  0  0  0  0  0  0  0  0  0  0  0
   -3.9605    0.9049    0.9025 H   0  0  0  0  0  0  0  0  0  0  0  0
   -1.3956    0.1987   -0.0359 C   0  0  0  0  0  0  0  0  0  0  0  0
   -2.8303   -1.2384   -0.7984 H   0  0  0  0  0  0  0  0  0  0  0  0
   -2.7240   -1.2324    0.9320 H   0  0  0  0  0  0  0  0  0  0  0  0
   -0.1331   -0.7113    0.0527 C   0  0  0  0  0  0  0  0  0  0  0  0
   -1.4672    0.8447    0.8296 H   0  0  0  0  0  0  0  0  0  0  0  0
   -1.2981    0.7921   -0.9247 H   0  0  0  0  0  0  0  0  0  0  0  0
   -0.2597   -1.2024    0.9257 H   0  0  0  0  0  0  0  0  0  0  0  0
    0.6865   -0.1753    0.2091 H   0  0  0  0  0  0  0  0  0  0  0  0
    0.0222   -1.4372   -0.8228 H   0  0  0  0  0  0  0  0  0  0  0  0
  1  3  1  0  0  0  0
  1  5  1  0  0  0  0
  2  1  1  0  0  0  0
  2  8  1  0  0  0  0
  4  1  1  0  0  0  0
  6  2  1  0  0  0  0
  6  9  1  0  0  0  0
  6 10  1  0  0  0  0
  7  2  1  0  0  0  0
  9 13  1  0  0  0  0
  9 12  1  0  0  0  0
 11  6  1  0  0  0  0
 14  9  1  0  0  0  0
M  END
$$$$
