butane_opt
 OpenBabel08242015413D

 14 13  0  0  0  0  0  0  0  0999 V2000
   -3.9331    0.2903   -0.0387 C   0  0  0  0  0  0  0  0  0  0  0  0
   -2.6645   -0.6467    0.0750 C   0  0  0  0  0  0  0  0  0  0  0  0
   -4.8819   -0.3528    0.0769 H   0  0  0  0  0  0  0  0  0  0  0  0
   -3.9462    0.9315   -0.9179 H   0  0  0  0  0  0  0  0  0  0  0  0
   -4.0051    0.9382    0.7818 H   0  0  0  0  0  0  0  0  0  0  0  0
   -1.4120    0.1791    0.0821 C   0  0  0  0  0  0  0  0  0  0  0  0
   -2.6154   -1.3567   -0.7908 H   0  0  0  0  0  0  0  0  0  0  0  0
   -2.7749   -1.2983    0.9445 H   0  0  0  0  0  0  0  0  0  0  0  0
   -0.1955   -0.6702   -0.0048 C   0  0  0  0  0  0  0  0  0  0  0  0
   -1.3057    0.8277    0.9220 H   0  0  0  0  0  0  0  0  0  0  0  0
   -1.4660    0.7487   -0.7652 H   0  0  0  0  0  0  0  0  0  0  0  0
   -0.0020   -1.3416    0.9195 H   0  0  0  0  0  0  0  0  0  0  0  0
    0.7450   -0.0810   -0.2277 H   0  0  0  0  0  0  0  0  0  0  0  0
   -0.3210   -1.3018   -0.8467 H   0  0  0  0  0  0  0  0  0  0  0  0
  1  2  1  0  0  0  0
  1  3  1  0  0  0  0
  1  5  1  0  0  0  0
  2  6  1  0  0  0  0
  2  8  1  0  0  0  0
  4  1  1  0  0  0  0
  6 10  1  0  0  0  0
  7  2  1  0  0  0  0
  9  6  1  0  0  0  0
  9 12  1  0  0  0  0
 11  6  1  0  0  0  0
 13  9  1  0  0  0  0
 14  9  1  0  0  0  0
M  END
$$$$
