14
butane_opt
C  -3.971928   0.269565   0.053502
C  -2.690622  -0.635103  -0.013470
H  -4.866692  -0.327395   0.024002
H  -4.012173   0.790235  -0.738932
H  -3.959200   1.027192   0.966275
C  -1.399413   0.203317  -0.018274
H  -2.801163  -1.434828  -0.937683
H  -2.643436  -1.182635   0.822111
C  -0.143696  -0.689341   0.063825
H  -1.355314   0.915952   0.832007
H  -1.356248   0.830418  -0.920133
H  -0.081495  -1.625627   1.196323
H   0.707207  -0.117200  -0.130939
H  -0.186741  -1.133912  -0.662195
