14
butane_opt
C  -3.962795   0.296255  -0.012691
C  -2.706820  -0.647415   0.055943
H  -4.856110  -0.333676   0.283985
H  -4.035099   1.099538  -1.058372
H  -3.939235   0.820083   0.732127
C  -1.383167   0.157285   0.043607
H  -2.654459  -1.317993  -0.796114
H  -2.719606  -1.280356   0.948397
C  -0.171911  -0.680725  -0.002143
H  -1.327394   0.989975   1.051596
H  -1.374101   0.683681  -0.789932
H  -0.169495  -1.265842   0.887936
H   0.828754  -0.008634   0.027712
H  -0.101436  -1.342341  -0.878918
