14
butane_opt
C  -3.940898   0.295576  -0.004684
C  -2.675073  -0.636209   0.090976
H  -4.826648  -0.340709   0.084145
H  -3.909073   0.964428  -0.950762
H  -4.075755   0.803701   0.696615
C  -1.406884   0.158701   0.024045
H  -2.753825  -1.263412  -0.746600
H  -2.660288  -1.274197   0.978523
C  -0.174401  -0.679261  -0.000675
H  -1.422384   0.785501   0.885746
H  -1.409201   0.788363  -0.863586
H  -0.298912  -1.038415   0.743767
H   0.827365   0.001624   0.264022
H  -0.140972  -1.555704  -1.003821
