14
butane_opt
C  -3.920861   0.247597   0.071153
C  -2.684259  -0.595129  -0.020004
H  -4.885824  -0.378046   0.007528
H  -4.052288   0.790080  -0.813087
H  -3.923646   1.005274   0.967645
C  -1.423428   0.185463  -0.014280
H  -2.775426  -1.372243  -0.930597
H  -2.746108  -1.093168   0.799416
C  -0.159477  -0.702756   0.064525
H  -1.467215   0.838032   0.826691
H  -1.393596   0.898099  -0.998227
H  -0.122054  -1.548421   1.143278
H   0.739244  -0.084239  -0.092492
H  -0.132852  -1.156974  -0.659051
