butane_opt
 OpenBabel08242015413D

 14 13  0  0  0  0  0  0  0  0999 V2000
   -3.9464    0.2561   -0.0121 C   0  0  0  0  0  0  0  0  0  0  0  0
   -2.7175   -0.5978    0.0913 C   0  0  0  0  0  0  0  0  0  0  0  0
   -4.8950   -0.3691   -0.0795 H   0  0  0  0  0  0  0  0  0  0  0  0
   -3.8799    0.8193   -0.8898 H   0  0  0  0  0  0  0  0  0  0  0  0
   -4.0365    0.9628    0.8604 H   0  0  0  0  0  0  0  0  0  0  0  0
   -1.4084    0.1940    0.0271 C   0  0  0  0  0  0  0  0  0  0  0  0
   -2.7127   -1.3124   -0.7666 H   0  0  0  0  0  0  0  0  0  0  0  0
   -2.7701   -1.2056    0.9913 H   0  0  0  0  0  0  0  0  0  0  0  0
   -0.1404   -0.7032   -0.0019 C   0  0  0  0  0  0  0  0  0  0  0  0
   -1.3282    0.8853    0.8851 H   0  0  0  0  0  0  0  0  0  0  0  0
   -1.3924    0.8413   -0.8619 H   0  0  0  0  0  0  0  0  0  0  0  0
   -0.0835   -1.3255    0.8846 H   0  0  0  0  0  0  0  0  0  0  0  0
    0.7528   -0.1349    0.0307 H   0  0  0  0  0  0  0  0  0  0  0  0
   -0.1188   -1.4317   -0.8610 H   0  0  0  0  0  0  0  0  0  0  0  0
  1  2  1  0  0  0  0
  1  5  1  0  0  0  0
  2  8  1  0  0  0  0
  3  1  1  0  0  0  0
  4  1  1  0  0  0  0
  6  2  1  0  0  0  0
  6 10  1  0  0  0  0
  7  2  1  0  0  0  0
  9  6  1  0  0  0  0
  9 13  1  0  0  0  0
  9 12  1  0  0  0  0
 11  6  1  0  0  0  0
 14  9  1  0  0  0  0
M  END
$$$$
