14
butane_opt
C  -3.945949   0.241107  -0.018826
C  -2.694068  -0.602959   0.085569
H  -4.849444  -0.362557   0.146661
H  -3.953379   1.057507  -1.096825
H  -3.994145   0.770466   0.721737
C  -1.425082   0.211187   0.065134
H  -2.724172  -1.340773  -0.785146
H  -2.695614  -1.200329   0.914427
C  -0.146052  -0.700204  -0.006262
H  -1.325323   0.961932   0.954942
H  -1.368745   0.788999  -0.828277
H  -0.112943  -1.266234   0.853294
H   0.688509  -0.178347  -0.044860
H  -0.137028  -1.496978  -0.933024
