butane_opt
 OpenBabel08242015413D

 14 13  0  0  0  0  0  0  0  0999 V2000
   -3.9719    0.2696    0.0535 C   0  0  0  0  0  0  0  0  0  0  0  0
   -2.6906   -0.6351   -0.0135 C   0  0  0  0  0  0  0  0  0  0  0  0
   -4.8667   -0.3274    0.0240 H   0  0  0  0  0  0  0  0  0  0  0  0
   -4.0122    0.7902   -0.7389 H   0  0  0  0  0  0  0  0  0  0  0  0
   -3.9592    1.0272    0.9663 H   0  0  0  0  0  0  0  0  0  0  0  0
   -1.3994    0.2033   -0.0183 C   0  0  0  0  0  0  0  0  0  0  0  0
   -2.8012   -1.4348   -0.9377 H   0  0  0  0  0  0  0  0  0  0  0  0
   -2.6434   -1.1826    0.8221 H   0  0  0  0  0  0  0  0  0  0  0  0
   -0.1437   -0.6893    0.0638 C   0  0  0  0  0  0  0  0  0  0  0  0
   -1.3553    0.9160    0.8320 H   0  0  0  0  0  0  0  0  0  0  0  0
   -1.3562    0.8304   -0.9201 H   0  0  0  0  0  0  0  0  0  0  0  0
   -0.0815   -1.6256    1.1963 H   0  0  0  0  0  0  0  0  0  0  0  0
    0.7072   -0.1172   -0.1309 H   0  0  0  0  0  0  0  0  0  0  0  0
   -0.1867   -1.1339   -0.6622 H   0  0  0  0  0  0  0  0  0  0  0  0
  1  5  1  0  0  0  0
  2  1  1  0  0  0  0
  2  8  1  0  0  0  0
  3  1  1  0  0  0  0
  4  1  1  0  0  0  0
  6  2  1  0  0  0  0
  6  9  1  0  0  0  0
  6 10  1  0  0  0  0
  7  2  1  0  0  0  0
  9 12  1  0  0  0  0
 11  6  1  0  0  0  0
 13  9  1  0  0  0  0
 14  9  1  0  0  0  0
M  END
$$$$
