14
butane_opt
C  -3.918992   0.252131   0.067543
C  -2.704183  -0.579291  -0.011300
H  -4.845241  -0.378635  -0.032081
H  -3.984221   0.797799  -0.846633
H  -3.937238   0.927447   0.939088
C  -1.412244   0.191077  -0.005106
H  -2.822726  -1.341148  -0.967672
H  -2.606298  -1.125682   0.816152
C  -0.170774  -0.715149   0.062793
H  -1.418086   0.807733   0.786676
H  -1.370620   0.795953  -0.925465
H  -0.131278  -1.489566   1.082557
H   0.762940  -0.098277  -0.141920
H  -0.180176  -1.145442  -0.624770
