butane_opt
 OpenBabel08242015413D

 14 13  0  0  0  0  0  0  0  0999 V2000
   -3.9593    0.2507    0.0651 C   0  0  0  0  0  0  0  0  0  0  0  0
   -2.6922   -0.6020   -0.0114 C   0  0  0  0  0  0  0  0  0  0  0  0
   -4.9042   -0.3904    0.0666 H   0  0  0  0  0  0  0  0  0  0  0  0
   -3.9846    0.7817   -0.7500 H   0  0  0  0  0  0  0  0  0  0  0  0
   -4.0354    1.0154    0.9551 H   0  0  0  0  0  0  0  0  0  0  0  0
   -1.4054    0.2059   -0.0319 C   0  0  0  0  0  0  0  0  0  0  0  0
   -2.7586   -1.3398   -0.9137 H   0  0  0  0  0  0  0  0  0  0  0  0
   -2.6862   -1.1546    0.8199 H   0  0  0  0  0  0  0  0  0  0  0  0
   -0.1469   -0.6935    0.0700 C   0  0  0  0  0  0  0  0  0  0  0  0
   -1.4134    0.8398    0.7624 H   0  0  0  0  0  0  0  0  0  0  0  0
   -1.3407    0.7761   -0.9417 H   0  0  0  0  0  0  0  0  0  0  0  0
   -0.1322   -1.5277    1.0905 H   0  0  0  0  0  0  0  0  0  0  0  0
    0.7347   -0.1638   -0.0275 H   0  0  0  0  0  0  0  0  0  0  0  0
   -0.0457   -1.2460   -0.6890 H   0  0  0  0  0  0  0  0  0  0  0  0
  1  3  1  0  0  0  0
  1  5  1  0  0  0  0
  2  1  1  0  0  0  0
  2  8  1  0  0  0  0
  4  1  1  0  0  0  0
  6  2  1  0  0  0  0
  6  9  1  0  0  0  0
  6 10  1  0  0  0  0
  7  2  1  0  0  0  0
  9 12  1  0  0  0  0
 11  6  1  0  0  0  0
 13  9  1  0  0  0  0
 14  9  1  0  0  0  0
M  END
$$$$
