14
butane_opt
C  -3.955946   0.269951   0.049872
C  -2.706679  -0.629444   0.014797
H  -4.870796  -0.292390   0.025594
H  -4.005897   0.849015  -0.837738
H  -3.925030   0.976736   0.929513
C  -1.399843   0.176988  -0.024626
H  -2.726136  -1.290442  -0.845970
H  -2.691942  -1.220126   0.893573
C  -0.145185  -0.689621   0.061987
H  -1.401905   0.789328   0.784864
H  -1.420495   0.898541  -0.975583
H  -0.197136  -1.244044   0.922508
H   0.782046  -0.080345   0.140881
H  -0.080646  -1.396086  -0.821921
