butane_opt
 OpenBabel08242015413D

 14 13  0  0  0  0  0  0  0  0999 V2000
   -3.9149    0.2792    0.0734 C   0  0  0  0  0  0  0  0  0  0  0  0
   -2.6935   -0.6360   -0.0415 C   0  0  0  0  0  0  0  0  0  0  0  0
   -4.8229   -0.2973    0.3153 H   0  0  0  0  0  0  0  0  0  0  0  0
   -4.1609    0.9615   -0.8774 H   0  0  0  0  0  0  0  0  0  0  0  0
   -3.7235    0.8731    0.8975 H   0  0  0  0  0  0  0  0  0  0  0  0
   -1.4116    0.1807   -0.0334 C   0  0  0  0  0  0  0  0  0  0  0  0
   -2.7737   -1.4344   -0.9664 H   0  0  0  0  0  0  0  0  0  0  0  0
   -2.7382   -1.1389    0.7758 H   0  0  0  0  0  0  0  0  0  0  0  0
   -0.1837   -0.6949    0.0917 C   0  0  0  0  0  0  0  0  0  0  0  0
   -1.4771    0.8411    0.8255 H   0  0  0  0  0  0  0  0  0  0  0  0
   -1.3272    0.8681   -1.0125 H   0  0  0  0  0  0  0  0  0  0  0  0
   -0.1827   -1.3693    1.0564 H   0  0  0  0  0  0  0  0  0  0  0  0
    0.7604   -0.0257    0.0719 H   0  0  0  0  0  0  0  0  0  0  0  0
   -0.1517   -1.2834   -0.7291 H   0  0  0  0  0  0  0  0  0  0  0  0
  1  3  1  0  0  0  0
  1  5  1  0  0  0  0
  2  6  1  0  0  0  0
  2  1  1  0  0  0  0
  2  8  1  0  0  0  0
  4  1  1  0  0  0  0
  6  9  1  0  0  0  0
  6 10  1  0  0  0  0
  7  2  1  0  0  0  0
  9 12  1  0  0  0  0
 11  6  1  0  0  0  0
 13  9  1  0  0  0  0
 14  9  1  0  0  0  0
M  END
$$$$
