14
butane_opt
C  -3.906748   0.241794  -0.006015
C  -2.692633  -0.600602   0.024573
H  -4.852000  -0.396452   0.256896
H  -4.089879   1.066227  -1.014457
H  -3.867771   0.766248   0.779261
C  -1.426869   0.200169   0.048550
H  -2.744249  -1.223914  -0.786981
H  -2.747312  -1.268953   1.011601
C  -0.165456  -0.703458   0.015339
H  -1.410588   0.981619   0.981302
H  -1.505138   0.795163  -0.809690
H  -0.140376  -1.255622   0.875354
H   0.736432  -0.158025  -0.007378
H  -0.086913  -1.438757  -0.868552
