14
butane_opt
C  -3.955203   0.274488   0.073831
C  -2.715336  -0.628114   0.006149
H  -4.822089  -0.270614   0.077675
H  -4.007574   0.878941  -0.806722
H  -4.047934   1.055903   0.957700
C  -1.380390   0.153835  -0.061017
H  -2.702988  -1.328959  -0.886708
H  -2.695438  -1.196498   0.844751
C  -0.145896  -0.682133   0.074643
H  -1.385419   0.740793   0.713048
H  -1.355911   0.866788  -0.967957
H  -0.352253  -1.211596   0.925203
H   0.786348  -0.072691   0.263211
H  -0.067283  -1.355613  -0.789318
