14
butane_opt
C  -3.955954   0.292260   0.043908
C  -2.703405  -0.654699  -0.003067
H  -4.842011  -0.311916   0.034696
H  -4.072324   0.931606  -0.878579
H  -4.003677   0.890133   0.866302
C  -1.398963   0.186882   0.027158
H  -2.683957  -1.373227  -0.863911
H  -2.656418  -1.235697   0.803793
C  -0.159858  -0.675047   0.057062
H  -1.379249   0.799165   0.825740
H  -1.312293   0.815832  -0.882717
H  -0.027717  -1.453503   1.023430
H   0.780290  -0.057731  -0.197537
H  -0.220766  -1.251029  -0.788949
