butane_opt
 OpenBabel08242015413D

 14 13  0  0  0  0  0  0  0  0999 V2000
   -3.9532    0.2817    0.0636 C   0  0  0  0  0  0  0  0  0  0  0  0
   -2.6852   -0.6544    0.0118 C   0  0  0  0  0  0  0  0  0  0  0  0
   -4.8098   -0.2582   -0.1981 H   0  0  0  0  0  0  0  0  0  0  0  0
   -3.9262    0.6241   -0.6732 H   0  0  0  0  0  0  0  0  0  0  0  0
   -4.0866    1.2034    1.0572 H   0  0  0  0  0  0  0  0  0  0  0  0
   -1.4082    0.1795   -0.0476 C   0  0  0  0  0  0  0  0  0  0  0  0
   -2.7719   -1.3220   -0.8494 H   0  0  0  0  0  0  0  0  0  0  0  0
   -2.6985   -1.2302    0.8436 H   0  0  0  0  0  0  0  0  0  0  0  0
   -0.1473   -0.6701    0.0939 C   0  0  0  0  0  0  0  0  0  0  0  0
   -1.4285    0.7403    0.7020 H   0  0  0  0  0  0  0  0  0  0  0  0
   -1.3687    0.8884   -1.0452 H   0  0  0  0  0  0  0  0  0  0  0  0
   -0.1490   -1.3357    1.0121 H   0  0  0  0  0  0  0  0  0  0  0  0
    0.7439   -0.1279   -0.1084 H   0  0  0  0  0  0  0  0  0  0  0  0
   -0.2087   -1.2907   -0.7298 H   0  0  0  0  0  0  0  0  0  0  0  0
  1  5  1  0  0  0  0
  2  1  1  0  0  0  0
  2  8  1  0  0  0  0
  3  1  1  0  0  0  0
  4  1  1  0  0  0  0
  6  2  1  0  0  0  0
  6  9  1  0  0  0  0
  6 10  1  0  0  0  0
  7  2  1  0  0  0  0
  9 12  1  0  0  0  0
 11  6  1  0  0  0  0
 13  9  1  0  0  0  0
 14  9  1  0  0  0  0
M  END
$$$$
