14
butane_opt
C  -3.953232   0.281661   0.063614
C  -2.685227  -0.654447   0.011847
H  -4.809826  -0.258226  -0.198086
H  -3.926185   0.624075  -0.673158
H  -4.086608   1.203413   1.057212
C  -1.408156   0.179500  -0.047594
H  -2.771902  -1.321982  -0.849429
H  -2.698508  -1.230238   0.843616
C  -0.147306  -0.670101   0.093926
H  -1.428525   0.740320   0.702035
H  -1.368709   0.888409  -1.045208
H  -0.149013  -1.335699   1.012110
H   0.743863  -0.127857  -0.108441
H  -0.208725  -1.290730  -0.729796
