14
butane_opt
C  -3.918533   0.248744   0.076349
C  -2.708731  -0.604761  -0.009828
H  -4.870636  -0.414698   0.123213
H  -3.901139   0.766667  -0.809173
H  -3.897241   0.967162   0.972202
C  -1.416616   0.220215  -0.057987
H  -2.738644  -1.310352  -0.893368
H  -2.628083  -1.083450   0.819127
C  -0.184260  -0.722740   0.088331
H  -1.362102   0.791899   0.717905
H  -1.422386   0.958132  -1.038133
H  -0.214412  -1.310422   0.978946
H   0.713496  -0.147976   0.206442
H   0.044399  -1.405741  -0.781546
