butane_opt
 OpenBabel08242015413D

 14 13  0  0  0  0  0  0  0  0999 V2000
   -3.9618    0.2439    0.0778 C   0  0  0  0  0  0  0  0  0  0  0  0
   -2.7266   -0.5823   -0.0407 C   0  0  0  0  0  0  0  0  0  0  0  0
   -4.9003   -0.3742    0.2446 H   0  0  0  0  0  0  0  0  0  0  0  0
   -4.0180    0.9151   -0.8806 H   0  0  0  0  0  0  0  0  0  0  0  0
   -3.8302    0.8268    0.8614 H   0  0  0  0  0  0  0  0  0  0  0  0
   -1.4061    0.2112   -0.0426 C   0  0  0  0  0  0  0  0  0  0  0  0
   -2.7323   -1.3498   -0.9374 H   0  0  0  0  0  0  0  0  0  0  0  0
   -2.6661   -1.1779    0.8523 H   0  0  0  0  0  0  0  0  0  0  0  0
   -0.1269   -0.7106    0.0897 C   0  0  0  0  0  0  0  0  0  0  0  0
   -1.4274    0.9364    0.8188 H   0  0  0  0  0  0  0  0  0  0  0  0
   -1.3382    0.7186   -0.8352 H   0  0  0  0  0  0  0  0  0  0  0  0
   -0.1429   -1.4065    1.0614 H   0  0  0  0  0  0  0  0  0  0  0  0
    0.7417   -0.2227   -0.0632 H   0  0  0  0  0  0  0  0  0  0  0  0
   -0.0386   -1.2861   -0.6990 H   0  0  0  0  0  0  0  0  0  0  0  0
  1  3  1  0  0  0  0
  1  5  1  0  0  0  0
  2  1  1  0  0  0  0
  2  8  1  0  0  0  0
  4  1  1  0  0  0  0
  6  2  1  0  0  0  0
  6  9  1  0  0  0  0
  6 10  1  0  0  0  0
  7  2  1  0  0  0  0
  9 12  1  0  0  0  0
 11  6  1  0  0  0  0
 13  9  1  0  0  0  0
 14  9  1  0  0  0  0
M  END
$$$$
