butane_opt
 OpenBabel08242015413D

 14 13  0  0  0  0  0  0  0  0999 V2000
   -3.9764    0.2821    0.0033 C   0  0  0  0  0  0  0  0  0  0  0  0
   -2.6988   -0.6316    0.0533 C   0  0  0  0  0  0  0  0  0  0  0  0
   -4.8436   -0.2501    0.0582 H   0  0  0  0  0  0  0  0  0  0  0  0
   -4.0291    0.8872   -0.8670 H   0  0  0  0  0  0  0  0  0  0  0  0
   -3.9408    0.9311    0.8955 H   0  0  0  0  0  0  0  0  0  0  0  0
   -1.3986    0.1535   -0.0085 C   0  0  0  0  0  0  0  0  0  0  0  0
   -2.6790   -1.2487   -0.7153 H   0  0  0  0  0  0  0  0  0  0  0  0
   -2.6891   -1.3671    1.0055 H   0  0  0  0  0  0  0  0  0  0  0  0
   -0.1517   -0.6762    0.0343 C   0  0  0  0  0  0  0  0  0  0  0  0
   -1.3706    0.8712    0.9062 H   0  0  0  0  0  0  0  0  0  0  0  0
   -1.3029    0.8105   -0.9039 H   0  0  0  0  0  0  0  0  0  0  0  0
   -0.1930   -1.0993    0.8201 H   0  0  0  0  0  0  0  0  0  0  0  0
    0.7606   -0.0417    0.1595 H   0  0  0  0  0  0  0  0  0  0  0  0
   -0.0502   -1.4928   -0.9386 H   0  0  0  0  0  0  0  0  0  0  0  0
  1  2  1  0  0  0  0
  1  3  1  0  0  0  0
  1  5  1  0  0  0  0
  2  8  1  0  0  0  0
  4  1  1  0  0  0  0
  6  9  1  0  0  0  0
  6  2  1  0  0  0  0
  6 10  1  0  0  0  0
  7  2  1  0  0  0  0
  9 13  1  0  0  0  0
  9 12  1  0  0  0  0
 11  6  1  0  0  0  0
 14  9  1  0  0  0  0
M  END
$$$$
