14
butane_opt
C  -3.962688   0.278048  -0.024225
C  -2.693416  -0.640078   0.087598
H  -4.848069  -0.289818  -0.119780
H  -3.935009   0.818602  -0.871929
H  -4.076803   1.039151   0.867144
C  -1.402910   0.168783   0.046448
H  -2.622797  -1.265831  -0.661756
H  -2.801148  -1.368782   1.062284
C  -0.143395  -0.673742  -0.001497
H  -1.322744   0.866853   0.906184
H  -1.416386   0.838996  -0.876975
H  -0.135061  -1.189580   0.829218
H   0.691591  -0.136390  -0.025527
H  -0.131749  -1.390394  -0.966928
