butane_opt
 OpenBabel08242015413D

 14 13  0  0  0  0  0  0  0  0999 V2000
   -3.9133    0.2416    0.0538 C   0  0  0  0  0  0  0  0  0  0  0  0
   -2.7057   -0.6093   -0.0122 C   0  0  0  0  0  0  0  0  0  0  0  0
   -4.8639   -0.3369    0.0081 H   0  0  0  0  0  0  0  0  0  0  0  0
   -3.9852    0.8111   -0.8243 H   0  0  0  0  0  0  0  0  0  0  0  0
   -3.8220    1.0526    1.0311 H   0  0  0  0  0  0  0  0  0  0  0  0
   -1.4069    0.2145   -0.0217 C   0  0  0  0  0  0  0  0  0  0  0  0
   -2.8417   -1.3424   -0.9212 H   0  0  0  0  0  0  0  0  0  0  0  0
   -2.6828   -1.1069    0.8262 H   0  0  0  0  0  0  0  0  0  0  0  0
   -0.1699   -0.7170    0.0632 C   0  0  0  0  0  0  0  0  0  0  0  0
   -1.4492    0.8798    0.8323 H   0  0  0  0  0  0  0  0  0  0  0  0
   -1.4843    0.8408   -0.8988 H   0  0  0  0  0  0  0  0  0  0  0  0
   -0.1224   -1.5481    1.1375 H   0  0  0  0  0  0  0  0  0  0  0  0
    0.7292   -0.1320   -0.1269 H   0  0  0  0  0  0  0  0  0  0  0  0
   -0.1443   -1.1494   -0.5975 H   0  0  0  0  0  0  0  0  0  0  0  0
  1  5  1  0  0  0  0
  2  1  1  0  0  0  0
  2  8  1  0  0  0  0
  3  1  1  0  0  0  0
  4  1  1  0  0  0  0
  6  2  1  0  0  0  0
  6  9  1  0  0  0  0
  6 10  1  0  0  0  0
  7  2  1  0  0  0  0
  9 12  1  0  0  0  0
 11  6  1  0  0  0  0
 13  9  1  0  0  0  0
 14  9  1  0  0  0  0
M  END
$$$$
