butane_opt
 OpenBabel08242015413D

 14 13  0  0  0  0  0  0  0  0999 V2000
   -3.9428    0.2657   -0.0137 C   0  0  0  0  0  0  0  0  0  0  0  0
   -2.6911   -0.6161    0.0826 C   0  0  0  0  0  0  0  0  0  0  0  0
   -4.8163   -0.3133   -0.0983 H   0  0  0  0  0  0  0  0  0  0  0  0
   -3.8668    0.8667   -0.9126 H   0  0  0  0  0  0  0  0  0  0  0  0
   -4.0554    0.9517    0.8401 H   0  0  0  0  0  0  0  0  0  0  0  0
   -1.3993    0.1792    0.0388 C   0  0  0  0  0  0  0  0  0  0  0  0
   -2.6746   -1.2748   -0.7406 H   0  0  0  0  0  0  0  0  0  0  0  0
   -2.6934   -1.2838    1.0068 H   0  0  0  0  0  0  0  0  0  0  0  0
   -0.1814   -0.6859   -0.0041 C   0  0  0  0  0  0  0  0  0  0  0  0
   -1.3353    0.8671    0.9090 H   0  0  0  0  0  0  0  0  0  0  0  0
   -1.4558    0.7630   -0.7884 H   0  0  0  0  0  0  0  0  0  0  0  0
   -0.0856   -1.2938    0.8711 H   0  0  0  0  0  0  0  0  0  0  0  0
    0.7292   -0.0999   -0.0304 H   0  0  0  0  0  0  0  0  0  0  0  0
   -0.1986   -1.3622   -0.8557 H   0  0  0  0  0  0  0  0  0  0  0  0
  1  2  1  0  0  0  0
  1  5  1  0  0  0  0
  2  8  1  0  0  0  0
  3  1  1  0  0  0  0
  4  1  1  0  0  0  0
  6  2  1  0  0  0  0
  6 10  1  0  0  0  0
  7  2  1  0  0  0  0
  9  6  1  0  0  0  0
  9 12  1  0  0  0  0
 11  6  1  0  0  0  0
 13  9  1  0  0  0  0
 14  9  1  0  0  0  0
M  END
$$$$
