14
butane_opt
C  -3.972088   0.289449   0.031670
C  -2.706263  -0.635669   0.030733
H  -4.892150  -0.309773  -0.105575
H  -3.913188   0.686113  -0.728542
H  -4.065947   1.168082   1.053238
C  -1.370278   0.155573  -0.034374
H  -2.763335  -1.276059  -0.770035
H  -2.616544  -1.224805   0.913096
C  -0.161345  -0.666531   0.070290
H  -1.390260   0.728569   0.774752
H  -1.329409   0.848002  -1.003821
H  -0.142363  -1.327594   0.968519
H   0.773793  -0.092722   0.019420
H  -0.176256  -1.384926  -0.841880
