14
butane_opt
C  -3.941137   0.281943  -0.033398
C  -2.696673  -0.646396   0.051974
H  -4.809831  -0.248958   0.259708
H  -4.146772   1.092220  -1.070589
H  -3.929871   0.798911   0.755323
C  -1.406216   0.171747   0.071101
H  -2.622061  -1.332074  -0.742710
H  -2.732843  -1.367441   1.013805
C  -0.157721  -0.667742   0.001206
H  -1.314616   0.940894   0.994395
H  -1.466824   0.698339  -0.727016
H  -0.132696  -1.254794   0.873322
H   0.771759  -0.038971  -0.076832
H  -0.226563  -1.412501  -0.953107
