14
butane_opt
C  -3.923418   0.243494   0.054411
C  -2.713060  -0.578974   0.018357
H  -4.830280  -0.356177  -0.174361
H  -3.828468   0.651287  -0.713154
H  -3.957936   1.101127   1.055540
C  -1.400921   0.192420  -0.044684
H  -2.759936  -1.182600  -0.846423
H  -2.760346  -1.256201   0.942601
C  -0.160776  -0.714782   0.068978
H  -1.538427   0.821492   0.741523
H  -1.397912   0.840854  -0.941041
H  -0.124766  -1.364590   1.009268
H   0.719297  -0.133991   0.022314
H  -0.161358  -1.311984  -0.794913
