butane_opt
 OpenBabel08242015413D

 14 13  0  0  0  0  0  0  0  0999 V2000
   -3.9413    0.2548   -0.0320 C   0  0  0  0  0  0  0  0  0  0  0  0
   -2.7092   -0.5966    0.0877 C   0  0  0  0  0  0  0  0  0  0  0  0
   -4.9446   -0.3966    0.1586 H   0  0  0  0  0  0  0  0  0  0  0  0
   -3.9006    1.0478   -1.0845 H   0  0  0  0  0  0  0  0  0  0  0  0
   -3.8956    0.7337    0.6872 H   0  0  0  0  0  0  0  0  0  0  0  0
   -1.4196    0.1919    0.0958 C   0  0  0  0  0  0  0  0  0  0  0  0
   -2.6858   -1.2961   -0.7917 H   0  0  0  0  0  0  0  0  0  0  0  0
   -2.7494   -1.1757    0.9145 H   0  0  0  0  0  0  0  0  0  0  0  0
   -0.1442   -0.7041   -0.0296 C   0  0  0  0  0  0  0  0  0  0  0  0
   -1.2755    0.9491    0.9793 H   0  0  0  0  0  0  0  0  0  0  0  0
   -1.4166    0.8328   -0.7892 H   0  0  0  0  0  0  0  0  0  0  0  0
   -0.1576   -1.3384    0.8666 H   0  0  0  0  0  0  0  0  0  0  0  0
    0.7249   -0.1547   -0.0754 H   0  0  0  0  0  0  0  0  0  0  0  0
   -0.1397   -1.4432   -0.9079 H   0  0  0  0  0  0  0  0  0  0  0  0
  1  2  1  0  0  0  0
  1  3  1  0  0  0  0
  1  5  1  0  0  0  0
  2  6  1  0  0  0  0
  2  8  1  0  0  0  0
  4  1  1  0  0  0  0
  6 10  1  0  0  0  0
  7  2  1  0  0  0  0
  9  6  1  0  0  0  0
  9 12  1  0  0  0  0
 11  6  1  0  0  0  0
 13  9  1  0  0  0  0
 14  9  1  0  0  0  0
M  END
$$$$
