butane_opt
 OpenBabel08242015413D

 14 13  0  0  0  0  0  0  0  0999 V2000
   -3.9256    0.2604    0.0711 C   0  0  0  0  0  0  0  0  0  0  0  0
   -2.6933   -0.6161   -0.0357 C   0  0  0  0  0  0  0  0  0  0  0  0
   -4.9003   -0.3662    0.0615 H   0  0  0  0  0  0  0  0  0  0  0  0
   -3.9592    0.7638   -0.7996 H   0  0  0  0  0  0  0  0  0  0  0  0
   -3.8409    1.0111    1.0053 H   0  0  0  0  0  0  0  0  0  0  0  0
   -1.4124    0.2114   -0.0223 C   0  0  0  0  0  0  0  0  0  0  0  0
   -2.7473   -1.2989   -0.9374 H   0  0  0  0  0  0  0  0  0  0  0  0
   -2.6809   -1.2364    0.8653 H   0  0  0  0  0  0  0  0  0  0  0  0
   -0.1763   -0.6946    0.0754 C   0  0  0  0  0  0  0  0  0  0  0  0
   -1.5506    0.8543    0.7668 H   0  0  0  0  0  0  0  0  0  0  0  0
   -1.3074    0.8009   -0.9381 H   0  0  0  0  0  0  0  0  0  0  0  0
   -0.0504   -1.5544    1.1279 H   0  0  0  0  0  0  0  0  0  0  0  0
    0.7000   -0.1546   -0.0714 H   0  0  0  0  0  0  0  0  0  0  0  0
   -0.1959   -1.2252   -0.6744 H   0  0  0  0  0  0  0  0  0  0  0  0
  1  5  1  0  0  0  0
  2  6  1  0  0  0  0
  2  1  1  0  0  0  0
  2  8  1  0  0  0  0
  3  1  1  0  0  0  0
  4  1  1  0  0  0  0
  6  9  1  0  0  0  0
  6 10  1  0  0  0  0
  7  2  1  0  0  0  0
  9 12  1  0  0  0  0
 11  6  1  0  0  0  0
 13  9  1  0  0  0  0
 14  9  1  0  0  0  0
M  END
$$$$
