butane_opt
 OpenBabel08242015413D

 14 13  0  0  0  0  0  0  0  0999 V2000
   -3.9299    0.2499    0.0258 C   0  0  0  0  0  0  0  0  0  0  0  0
   -2.7211   -0.5691    0.0361 C   0  0  0  0  0  0  0  0  0  0  0  0
   -4.8696   -0.3835   -0.1518 H   0  0  0  0  0  0  0  0  0  0  0  0
   -3.8163    0.6510   -0.7449 H   0  0  0  0  0  0  0  0  0  0  0  0
   -3.8866    1.0427    0.9953 H   0  0  0  0  0  0  0  0  0  0  0  0
   -1.4135    0.1881    0.0053 C   0  0  0  0  0  0  0  0  0  0  0  0
   -2.6616   -1.2702   -0.7918 H   0  0  0  0  0  0  0  0  0  0  0  0
   -2.6946   -1.2308    0.9025 H   0  0  0  0  0  0  0  0  0  0  0  0
   -0.1681   -0.7104    0.0437 C   0  0  0  0  0  0  0  0  0  0  0  0
   -1.3689    0.7432    0.7562 H   0  0  0  0  0  0  0  0  0  0  0  0
   -1.4329    0.9086   -0.9706 H   0  0  0  0  0  0  0  0  0  0  0  0
   -0.1148   -1.3568    0.9756 H   0  0  0  0  0  0  0  0  0  0  0  0
    0.7006   -0.1148   -0.0693 H   0  0  0  0  0  0  0  0  0  0  0  0
   -0.0943   -1.3644   -0.7723 H   0  0  0  0  0  0  0  0  0  0  0  0
  1  2  1  0  0  0  0
  1  5  1  0  0  0  0
  2  8  1  0  0  0  0
  3  1  1  0  0  0  0
  4  1  1  0  0  0  0
  6  2  1  0  0  0  0
  6  9  1  0  0  0  0
  6 10  1  0  0  0  0
  7  2  1  0  0  0  0
  9 12  1  0  0  0  0
 11  6  1  0  0  0  0
 13  9  1  0  0  0  0
 14  9  1  0  0  0  0
M  END
$$$$
