14
butane_opt
C  -3.934615   0.273920   0.091016
C  -2.712489  -0.619528  -0.049178
H  -4.835843  -0.284190   0.265307
H  -4.096977   0.998287  -0.896101
H  -3.903850   0.813722   0.889160
C  -1.397719   0.178676  -0.041378
H  -2.806866  -1.440539  -1.000281
H  -2.606944  -1.206141   0.809844
C  -0.163574  -0.688602   0.083485
H  -1.469077   0.862788   0.785021
H  -1.286731   0.785954  -0.923457
H  -0.182317  -1.372070   1.075974
H   0.742375  -0.078976   0.096477
H  -0.078485  -1.270172  -0.680575
