butane_opt
 OpenBabel08242015413D

 14 13  0  0  0  0  0  0  0  0999 V2000
   -3.9501    0.2850   -0.0176 C   0  0  0  0  0  0  0  0  0  0  0  0
   -2.6719   -0.6383    0.0813 C   0  0  0  0  0  0  0  0  0  0  0  0
   -4.8408   -0.2693   -0.0096 H   0  0  0  0  0  0  0  0  0  0  0  0
   -3.9733    0.9108   -0.9496 H   0  0  0  0  0  0  0  0  0  0  0  0
   -4.0245    0.8768    0.8297 H   0  0  0  0  0  0  0  0  0  0  0  0
   -1.3864    0.1677    0.0309 C   0  0  0  0  0  0  0  0  0  0  0  0
   -2.6797   -1.2311   -0.6983 H   0  0  0  0  0  0  0  0  0  0  0  0
   -2.6799   -1.4239    1.1302 H   0  0  0  0  0  0  0  0  0  0  0  0
   -0.1984   -0.6694   -0.0057 C   0  0  0  0  0  0  0  0  0  0  0  0
   -1.4100    0.8736    0.9125 H   0  0  0  0  0  0  0  0  0  0  0  0
   -1.3868    0.7777   -0.8217 H   0  0  0  0  0  0  0  0  0  0  0  0
   -0.2279   -1.0906    0.7378 H   0  0  0  0  0  0  0  0  0  0  0  0
    0.7306   -0.0922    0.1720 H   0  0  0  0  0  0  0  0  0  0  0  0
   -0.0572   -1.5347   -0.9700 H   0  0  0  0  0  0  0  0  0  0  0  0
  1  3  1  0  0  0  0
  1  2  1  0  0  0  0
  1  5  1  0  0  0  0
  2  8  1  0  0  0  0
  4  1  1  0  0  0  0
  6  2  1  0  0  0  0
  6 10  1  0  0  0  0
  7  2  1  0  0  0  0
  9  6  1  0  0  0  0
  9 13  1  0  0  0  0
  9 12  1  0  0  0  0
 11  6  1  0  0  0  0
 14  9  1  0  0  0  0
M  END
$$$$
