butane_opt
 OpenBabel08242015413D

 14 13  0  0  0  0  0  0  0  0999 V2000
   -3.9329    0.2867    0.0592 C   0  0  0  0  0  0  0  0  0  0  0  0
   -2.7042   -0.6310    0.0103 C   0  0  0  0  0  0  0  0  0  0  0  0
   -4.8893   -0.3950    0.0746 H   0  0  0  0  0  0  0  0  0  0  0  0
   -4.0189    0.8630   -0.7961 H   0  0  0  0  0  0  0  0  0  0  0  0
   -3.9410    1.0066    1.0020 H   0  0  0  0  0  0  0  0  0  0  0  0
   -1.4040    0.1689   -0.0641 C   0  0  0  0  0  0  0  0  0  0  0  0
   -2.6755   -1.2729   -0.8123 H   0  0  0  0  0  0  0  0  0  0  0  0
   -2.6420   -1.2926    0.8834 H   0  0  0  0  0  0  0  0  0  0  0  0
   -0.1701   -0.6866    0.0607 C   0  0  0  0  0  0  0  0  0  0  0  0
   -1.4161    0.8302    0.7601 H   0  0  0  0  0  0  0  0  0  0  0  0
   -1.3124    0.8090   -0.9397 H   0  0  0  0  0  0  0  0  0  0  0  0
   -0.3142   -1.2333    0.9100 H   0  0  0  0  0  0  0  0  0  0  0  0
    0.7593   -0.0495    0.3432 H   0  0  0  0  0  0  0  0  0  0  0  0
   -0.0310   -1.3982   -0.7761 H   0  0  0  0  0  0  0  0  0  0  0  0
  1  3  1  0  0  0  0
  1  5  1  0  0  0  0
  2  1  1  0  0  0  0
  2  8  1  0  0  0  0
  4  1  1  0  0  0  0
  6  2  1  0  0  0  0
  6  9  1  0  0  0  0
  6 10  1  0  0  0  0
  7  2  1  0  0  0  0
  9 13  1  0  0  0  0
  9 12  1  0  0  0  0
 11  6  1  0  0  0  0
 14  9  1  0  0  0  0
M  END
$$$$
