14
butane_opt
C  -3.925568   0.260409   0.071123
C  -2.693294  -0.616063  -0.035705
H  -4.900307  -0.366198   0.061520
H  -3.959219   0.763834  -0.799639
H  -3.840900   1.011059   1.005271
C  -1.412413   0.211437  -0.022320
H  -2.747277  -1.298936  -0.937369
H  -2.680917  -1.236443   0.865273
C  -0.176253  -0.694572   0.075424
H  -1.550552   0.854291   0.766787
H  -1.307373   0.800940  -0.938078
H  -0.050410  -1.554404   1.127866
H   0.699976  -0.154596  -0.071450
H  -0.195927  -1.225165  -0.674448
