14
butane_opt
C  -3.902915   0.243479  -0.018106
C  -2.712225  -0.602067   0.052568
H  -4.883460  -0.390604   0.323407
H  -4.041559   1.100779  -1.095078
H  -3.899671   0.723058   0.724441
C  -1.410735   0.228318   0.065279
H  -2.743722  -1.270955  -0.812792
H  -2.738015  -1.221180   0.898300
C  -0.160934  -0.727538   0.016358
H  -1.420899   0.889410   0.923549
H  -1.465440   0.807319  -0.810937
H  -0.070311  -1.185166   0.820551
H   0.735608  -0.126858  -0.011470
H  -0.230891  -1.507209  -0.942236
