14
butane_opt
C  -3.956150   0.270183   0.050909
C  -2.698587  -0.625122  -0.000823
H  -4.882179  -0.314420   0.134489
H  -4.044577   0.916818  -0.868948
H  -3.927772   0.948057   0.904718
C  -1.397628   0.168071  -0.019197
H  -2.736935  -1.307379  -0.885637
H  -2.673294  -1.195427   0.846654
C  -0.159215  -0.683147   0.071605
H  -1.413239   0.811983   0.805615
H  -1.356702   0.837179  -0.947324
H  -0.087299  -1.307112   0.952187
H   0.772182  -0.056801   0.053214
H  -0.142004  -1.361784  -0.781602
