14
butane_opt
C  -3.948516   0.243448  -0.025759
C  -2.714138  -0.614803   0.079131
H  -4.844672  -0.302614   0.146702
H  -3.988620   0.983237  -0.965759
H  -3.896758   0.789057   0.768928
C  -1.421507   0.231191   0.030185
H  -2.672602  -1.190136  -0.695661
H  -2.820931  -1.320473   1.089436
C  -0.131230  -0.715161  -0.002541
H  -1.358774   0.943474   0.905315
H  -1.411632   0.750434  -0.782743
H  -0.102375  -1.128445   0.720301
H   0.721216  -0.157022   0.228202
H  -0.056735  -1.582733  -0.974572
