butane_opt
 OpenBabel08242015413D

 14 13  0  0  0  0  0  0  0  0999 V2000
   -3.9483    0.2873    0.0382 C   0  0  0  0  0  0  0  0  0  0  0  0
   -2.6964   -0.6375    0.0024 C   0  0  0  0  0  0  0  0  0  0  0  0
   -4.8484   -0.2993   -0.0045 H   0  0  0  0  0  0  0  0  0  0  0  0
   -4.1203    0.8431   -0.7947 H   0  0  0  0  0  0  0  0  0  0  0  0
   -3.9615    1.0358    0.9592 H   0  0  0  0  0  0  0  0  0  0  0  0
   -1.3914    0.1507   -0.0064 C   0  0  0  0  0  0  0  0  0  0  0  0
   -2.7384   -1.3679   -0.9158 H   0  0  0  0  0  0  0  0  0  0  0  0
   -2.7481   -1.1967    0.8827 H   0  0  0  0  0  0  0  0  0  0  0  0
   -0.1511   -0.6797    0.0460 C   0  0  0  0  0  0  0  0  0  0  0  0
   -1.4211    0.8966    0.9177 H   0  0  0  0  0  0  0  0  0  0  0  0
   -1.3616    0.7405   -0.8547 H   0  0  0  0  0  0  0  0  0  0  0  0
   -0.1311   -1.4766    1.1323 H   0  0  0  0  0  0  0  0  0  0  0  0
    0.7705   -0.0554   -0.1991 H   0  0  0  0  0  0  0  0  0  0  0  0
   -0.2174   -1.0364   -0.6257 H   0  0  0  0  0  0  0  0  0  0  0  0
  1  5  1  0  0  0  0
  2  1  1  0  0  0  0
  2  8  1  0  0  0  0
  3  1  1  0  0  0  0
  4  1  1  0  0  0  0
  6  2  1  0  0  0  0
  6  9  1  0  0  0  0
  6 10  1  0  0  0  0
  7  2  1  0  0  0  0
  9 12  1  0  0  0  0
 11  6  1  0  0  0  0
 13  9  1  0  0  0  0
 14  9  1  0  0  0  0
M  END
$$$$
