14
butane_opt
C  -3.936359   0.286317  -0.039603
C  -2.693614  -0.626650   0.084455
H  -4.879427  -0.318430  -0.024366
H  -3.873301   0.944554  -0.958661
H  -3.966508   0.898483   0.744878
C  -1.393645   0.163686   0.088249
H  -2.595025  -1.294566  -0.754230
H  -2.783354  -1.311319   1.023682
C  -0.191816  -0.678404  -0.037221
H  -1.324140   0.893514   1.034085
H  -1.506982   0.668156  -0.680090
H  -0.022683  -1.399967   0.933219
H   0.768035  -0.049805  -0.205348
H  -0.276583  -1.221958  -0.809698
