14
butane_opt
C  -3.948287   0.287327   0.038226
C  -2.696391  -0.637487   0.002448
H  -4.848434  -0.299301  -0.004534
H  -4.120260   0.843078  -0.794678
H  -3.961490   1.035795   0.959214
C  -1.391426   0.150717  -0.006426
H  -2.738392  -1.367929  -0.915847
H  -2.748128  -1.196726   0.882673
C  -0.151058  -0.679745   0.046044
H  -1.421058   0.896624   0.917702
H  -1.361553   0.740531  -0.854673
H  -0.131120  -1.476614   1.132306
H   0.770476  -0.055411  -0.199099
H  -0.217425  -1.036354  -0.625743
