butane_opt
 OpenBabel08242015413D

 14 13  0  0  0  0  0  0  0  0999 V2000
   -3.9364    0.2863   -0.0396 C   0  0  0  0  0  0  0  0  0  0  0  0
   -2.6936   -0.6267    0.0845 C   0  0  0  0  0  0  0  0  0  0  0  0
   -4.8794   -0.3184   -0.0244 H   0  0  0  0  0  0  0  0  0  0  0  0
   -3.8733    0.9446   -0.9587 H   0  0  0  0  0  0  0  0  0  0  0  0
   -3.9665    0.8985    0.7449 H   0  0  0  0  0  0  0  0  0  0  0  0
   -1.3936    0.1637    0.0882 C   0  0  0  0  0  0  0  0  0  0  0  0
   -2.5950   -1.2946   -0.7542 H   0  0  0  0  0  0  0  0  0  0  0  0
   -2.7834   -1.3113    1.0237 H   0  0  0  0  0  0  0  0  0  0  0  0
   -0.1918   -0.6784   -0.0372 C   0  0  0  0  0  0  0  0  0  0  0  0
   -1.3241    0.8935    1.0341 H   0  0  0  0  0  0  0  0  0  0  0  0
   -1.5070    0.6682   -0.6801 H   0  0  0  0  0  0  0  0  0  0  0  0
   -0.0227   -1.4000    0.9332 H   0  0  0  0  0  0  0  0  0  0  0  0
    0.7680   -0.0498   -0.2053 H   0  0  0  0  0  0  0  0  0  0  0  0
   -0.2766   -1.2220   -0.8097 H   0  0  0  0  0  0  0  0  0  0  0  0
  1  3  1  0  0  0  0
  1  2  1  0  0  0  0
  1  5  1  0  0  0  0
  2  6  1  0  0  0  0
  2  8  1  0  0  0  0
  4  1  1  0  0  0  0
  6 10  1  0  0  0  0
  7  2  1  0  0  0  0
  9  6  1  0  0  0  0
  9 12  1  0  0  0  0
 11  6  1  0  0  0  0
 13  9  1  0  0  0  0
 14  9  1  0  0  0  0
M  END
$$$$
