butane_opt
 OpenBabel08242015413D

 14 13  0  0  0  0  0  0  0  0999 V2000
   -3.9226    0.2417    0.0608 C   0  0  0  0  0  0  0  0  0  0  0  0
   -2.7037   -0.5993    0.0038 C   0  0  0  0  0  0  0  0  0  0  0  0
   -4.8706   -0.3563   -0.0289 H   0  0  0  0  0  0  0  0  0  0  0  0
   -3.8542    0.6852   -0.7105 H   0  0  0  0  0  0  0  0  0  0  0  0
   -3.8934    1.1247    1.0506 H   0  0  0  0  0  0  0  0  0  0  0  0
   -1.4244    0.2091   -0.0562 C   0  0  0  0  0  0  0  0  0  0  0  0
   -2.7391   -1.2792   -0.8400 H   0  0  0  0  0  0  0  0  0  0  0  0
   -2.6448   -1.2238    0.8766 H   0  0  0  0  0  0  0  0  0  0  0  0
   -0.1687   -0.7085    0.0645 C   0  0  0  0  0  0  0  0  0  0  0  0
   -1.4370    0.8300    0.7376 H   0  0  0  0  0  0  0  0  0  0  0  0
   -1.4093    0.8516   -0.9893 H   0  0  0  0  0  0  0  0  0  0  0  0
   -0.2189   -1.3676    1.0103 H   0  0  0  0  0  0  0  0  0  0  0  0
    0.6680   -0.1706    0.1456 H   0  0  0  0  0  0  0  0  0  0  0  0
    0.0134   -1.2920   -0.6573 H   0  0  0  0  0  0  0  0  0  0  0  0
  1  5  1  0  0  0  0
  2  1  1  0  0  0  0
  2  8  1  0  0  0  0
  3  1  1  0  0  0  0
  4  1  1  0  0  0  0
  6  2  1  0  0  0  0
  6  9  1  0  0  0  0
  6 10  1  0  0  0  0
  7  2  1  0  0  0  0
  9 13  1  0  0  0  0
  9 12  1  0  0  0  0
 11  6  1  0  0  0  0
 14  9  1  0  0  0  0
M  END
$$$$
