14
butane_opt
C  -3.930232   0.246525   0.042938
C  -2.731850  -0.604956   0.036955
H  -4.843976  -0.368272  -0.044395
H  -3.959268   0.722742  -0.719334
H  -4.019324   1.048529   1.000105
C  -1.417626   0.227734  -0.046772
H  -2.746125  -1.396017  -0.889150
H  -2.721526  -1.212226   0.900565
C  -0.125944  -0.718326   0.058910
H  -1.423085   0.867775   0.731350
H  -1.405255   0.919382  -0.971111
H  -0.147178  -1.361602   0.987900
H   0.725095  -0.157022   0.137940
H  -0.000379  -1.362014  -0.774093
