butane_opt
 OpenBabel08242015413D

 14 13  0  0  0  0  0  0  0  0999 V2000
   -3.9302    0.2465    0.0429 C   0  0  0  0  0  0  0  0  0  0  0  0
   -2.7319   -0.6050    0.0370 C   0  0  0  0  0  0  0  0  0  0  0  0
   -4.8440   -0.3683   -0.0444 H   0  0  0  0  0  0  0  0  0  0  0  0
   -3.9593    0.7227   -0.7193 H   0  0  0  0  0  0  0  0  0  0  0  0
   -4.0193    1.0485    1.0001 H   0  0  0  0  0  0  0  0  0  0  0  0
   -1.4176    0.2277   -0.0468 C   0  0  0  0  0  0  0  0  0  0  0  0
   -2.7461   -1.3960   -0.8891 H   0  0  0  0  0  0  0  0  0  0  0  0
   -2.7215   -1.2122    0.9006 H   0  0  0  0  0  0  0  0  0  0  0  0
   -0.1259   -0.7183    0.0589 C   0  0  0  0  0  0  0  0  0  0  0  0
   -1.4231    0.8678    0.7313 H   0  0  0  0  0  0  0  0  0  0  0  0
   -1.4053    0.9194   -0.9711 H   0  0  0  0  0  0  0  0  0  0  0  0
   -0.1472   -1.3616    0.9879 H   0  0  0  0  0  0  0  0  0  0  0  0
    0.7251   -0.1570    0.1379 H   0  0  0  0  0  0  0  0  0  0  0  0
   -0.0004   -1.3620   -0.7741 H   0  0  0  0  0  0  0  0  0  0  0  0
  1  5  1  0  0  0  0
  2  1  1  0  0  0  0
  2  8  1  0  0  0  0
  3  1  1  0  0  0  0
  4  1  1  0  0  0  0
  6  2  1  0  0  0  0
  6  9  1  0  0  0  0
  6 10  1  0  0  0  0
  7  2  1  0  0  0  0
  9 13  1  0  0  0  0
  9 12  1  0  0  0  0
 11  6  1  0  0  0  0
 14  9  1  0  0  0  0
M  END
$$$$
