14
butane_opt
C  -3.940310   0.246060   0.044043
C  -2.702028  -0.608270   0.000548
H  -4.842614  -0.343392   0.159606
H  -3.996670   0.904659  -0.868052
H  -3.931855   0.941228   0.949640
C  -1.411986   0.212537  -0.002454
H  -2.708029  -1.454714  -0.979097
H  -2.687618  -1.153577   0.786383
C  -0.148486  -0.704730   0.058141
H  -1.429121   0.875829   0.812534
H  -1.408618   0.864067  -0.887284
H  -0.132780  -1.504821   1.094667
H   0.712190  -0.108091  -0.131656
H  -0.151271  -1.236923  -0.678519
