butane_opt
 OpenBabel08242015413D

 14 13  0  0  0  0  0  0  0  0999 V2000
   -3.9350    0.2948    0.0545 C   0  0  0  0  0  0  0  0  0  0  0  0
   -2.6855   -0.6443    0.0321 C   0  0  0  0  0  0  0  0  0  0  0  0
   -4.8889   -0.3518   -0.2253 H   0  0  0  0  0  0  0  0  0  0  0  0
   -3.9081    0.7257   -0.7595 H   0  0  0  0  0  0  0  0  0  0  0  0
   -4.0739    1.1552    1.0100 H   0  0  0  0  0  0  0  0  0  0  0  0
   -1.4021    0.1663   -0.0397 C   0  0  0  0  0  0  0  0  0  0  0  0
   -2.7693   -1.3969   -0.8514 H   0  0  0  0  0  0  0  0  0  0  0  0
   -2.6489   -1.2516    0.9168 H   0  0  0  0  0  0  0  0  0  0  0  0
   -0.1780   -0.6752    0.0672 C   0  0  0  0  0  0  0  0  0  0  0  0
   -1.3469    0.7899    0.7552 H   0  0  0  0  0  0  0  0  0  0  0  0
   -1.3718    0.8644   -0.9705 H   0  0  0  0  0  0  0  0  0  0  0  0
   -0.1652   -1.3666    1.0156 H   0  0  0  0  0  0  0  0  0  0  0  0
    0.7502   -0.0456   -0.0070 H   0  0  0  0  0  0  0  0  0  0  0  0
   -0.1968   -1.2975   -0.7900 H   0  0  0  0  0  0  0  0  0  0  0  0
  1  5  1  0  0  0  0
  2  1  1  0  0  0  0
  2  8  1  0  0  0  0
  3  1  1  0  0  0  0
  4  1  1  0  0  0  0
  6  2  1  0  0  0  0
  6  9  1  0  0  0  0
  6 10  1  0  0  0  0
  7  2  1  0  0  0  0
  9 12  1  0  0  0  0
 11  6  1  0  0  0  0
 13  9  1  0  0  0  0
 14  9  1  0  0  0  0
M  END
$$$$
