14
butane_opt
C  -3.947516   0.270126   0.034240
C  -2.689268  -0.615379   0.020480
H  -4.864485  -0.319574   0.064115
H  -4.004707   0.854354  -0.848109
H  -3.937715   0.990731   0.932206
C  -1.399538   0.173886  -0.003490
H  -2.713888  -1.312143  -0.841964
H  -2.675215  -1.231580   0.894426
C  -0.172568  -0.686152   0.048248
H  -1.362848   0.741498   0.770264
H  -1.344040   0.830583  -0.954164
H  -0.190144  -1.287637   0.954637
H   0.737907  -0.079411   0.112063
H  -0.159011  -1.366132  -0.828668
