butane_opt
 OpenBabel08242015413D

 14 13  0  0  0  0  0  0  0  0999 V2000
   -3.9213    0.2446   -0.0467 C   0  0  0  0  0  0  0  0  0  0  0  0
   -2.6907   -0.6060    0.1151 C   0  0  0  0  0  0  0  0  0  0  0  0
   -4.8097   -0.3293   -0.1931 H   0  0  0  0  0  0  0  0  0  0  0  0
   -3.8804    0.7664   -0.9057 H   0  0  0  0  0  0  0  0  0  0  0  0
   -4.0170    1.0517    0.8753 H   0  0  0  0  0  0  0  0  0  0  0  0
   -1.4315    0.2116    0.0701 C   0  0  0  0  0  0  0  0  0  0  0  0
   -2.6642   -1.1889   -0.6656 H   0  0  0  0  0  0  0  0  0  0  0  0
   -2.7428   -1.3660    1.0528 H   0  0  0  0  0  0  0  0  0  0  0  0
   -0.1615   -0.7083   -0.0289 C   0  0  0  0  0  0  0  0  0  0  0  0
   -1.3418    0.8598    0.8983 H   0  0  0  0  0  0  0  0  0  0  0  0
   -1.4849    0.8051   -0.7872 H   0  0  0  0  0  0  0  0  0  0  0  0
   -0.1463   -1.2698    0.8808 H   0  0  0  0  0  0  0  0  0  0  0  0
    0.7385   -0.1121   -0.0727 H   0  0  0  0  0  0  0  0  0  0  0  0
   -0.2038   -1.3968   -0.9540 H   0  0  0  0  0  0  0  0  0  0  0  0
  1  2  1  0  0  0  0
  1  5  1  0  0  0  0
  2  8  1  0  0  0  0
  3  1  1  0  0  0  0
  4  1  1  0  0  0  0
  6  2  1  0  0  0  0
  6 10  1  0  0  0  0
  7  2  1  0  0  0  0
  9  6  1  0  0  0  0
  9 12  1  0  0  0  0
 11  6  1  0  0  0  0
 13  9  1  0  0  0  0
 14  9  1  0  0  0  0
M  END
$$$$
