butane_opt
 OpenBabel08242015413D

 14 13  0  0  0  0  0  0  0  0999 V2000
   -3.9383    0.2532    0.0004 C   0  0  0  0  0  0  0  0  0  0  0  0
   -2.7091   -0.6246    0.0697 C   0  0  0  0  0  0  0  0  0  0  0  0
   -4.8644   -0.3889    0.1261 H   0  0  0  0  0  0  0  0  0  0  0  0
   -4.0413    1.0345   -1.0121 H   0  0  0  0  0  0  0  0  0  0  0  0
   -3.9505    0.7162    0.7545 H   0  0  0  0  0  0  0  0  0  0  0  0
   -1.4196    0.2287    0.0332 C   0  0  0  0  0  0  0  0  0  0  0  0
   -2.8553   -1.2769   -0.8247 H   0  0  0  0  0  0  0  0  0  0  0  0
   -2.7007   -1.1486    0.8980 H   0  0  0  0  0  0  0  0  0  0  0  0
   -0.1302   -0.7149    0.0139 C   0  0  0  0  0  0  0  0  0  0  0  0
   -1.4047    0.9129    0.8826 H   0  0  0  0  0  0  0  0  0  0  0  0
   -1.4465    0.8356   -0.8485 H   0  0  0  0  0  0  0  0  0  0  0  0
   -0.0971   -1.2191    0.8312 H   0  0  0  0  0  0  0  0  0  0  0  0
    0.7486   -0.1733    0.1270 H   0  0  0  0  0  0  0  0  0  0  0  0
   -0.0355   -1.4840   -0.9389 H   0  0  0  0  0  0  0  0  0  0  0  0
  1  2  1  0  0  0  0
  1  3  1  0  0  0  0
  1  5  1  0  0  0  0
  2  8  1  0  0  0  0
  4  1  1  0  0  0  0
  6  2  1  0  0  0  0
  6 10  1  0  0  0  0
  7  2  1  0  0  0  0
  9  6  1  0  0  0  0
  9 13  1  0  0  0  0
  9 12  1  0  0  0  0
 11  6  1  0  0  0  0
 14  9  1  0  0  0  0
M  END
$$$$
