14
butane_opt
C  -3.922604   0.241736   0.060780
C  -2.703717  -0.599347   0.003834
H  -4.870643  -0.356255  -0.028869
H  -3.854193   0.685249  -0.710471
H  -3.893413   1.124683   1.050635
C  -1.424384   0.209119  -0.056161
H  -2.739130  -1.279166  -0.839982
H  -2.644777  -1.223802   0.876569
C  -0.168665  -0.708539   0.064479
H  -1.436969   0.830033   0.737612
H  -1.409323   0.851629  -0.989341
H  -0.218914  -1.367621   1.010333
H   0.667960  -0.170643   0.145558
H   0.013393  -1.292003  -0.657349
