14
butane_opt
C  -3.935381   0.246416   0.013800
C  -2.707128  -0.569479   0.021198
H  -4.896058  -0.406636   0.274904
H  -3.955216   0.989607  -1.016056
H  -3.869143   0.739346   0.733039
C  -1.393053   0.196885   0.030499
H  -2.783787  -1.273352  -0.854274
H  -2.704101  -1.259339   0.991330
C  -0.175108  -0.713597   0.028069
H  -1.393636   0.930462   0.922827
H  -1.455376   0.767848  -0.814329
H  -0.090977  -1.257087   0.872377
H   0.732981  -0.182275   0.045074
H  -0.073227  -1.440331  -0.858672
