butane_opt
 OpenBabel08242015413D

 14 13  0  0  0  0  0  0  0  0999 V2000
   -3.9354    0.2464    0.0138 C   0  0  0  0  0  0  0  0  0  0  0  0
   -2.7071   -0.5695    0.0212 C   0  0  0  0  0  0  0  0  0  0  0  0
   -4.8961   -0.4066    0.2749 H   0  0  0  0  0  0  0  0  0  0  0  0
   -3.9552    0.9896   -1.0161 H   0  0  0  0  0  0  0  0  0  0  0  0
   -3.8691    0.7393    0.7330 H   0  0  0  0  0  0  0  0  0  0  0  0
   -1.3931    0.1969    0.0305 C   0  0  0  0  0  0  0  0  0  0  0  0
   -2.7838   -1.2734   -0.8543 H   0  0  0  0  0  0  0  0  0  0  0  0
   -2.7041   -1.2593    0.9913 H   0  0  0  0  0  0  0  0  0  0  0  0
   -0.1751   -0.7136    0.0281 C   0  0  0  0  0  0  0  0  0  0  0  0
   -1.3936    0.9305    0.9228 H   0  0  0  0  0  0  0  0  0  0  0  0
   -1.4554    0.7678   -0.8143 H   0  0  0  0  0  0  0  0  0  0  0  0
   -0.0910   -1.2571    0.8724 H   0  0  0  0  0  0  0  0  0  0  0  0
    0.7330   -0.1823    0.0451 H   0  0  0  0  0  0  0  0  0  0  0  0
   -0.0732   -1.4403   -0.8587 H   0  0  0  0  0  0  0  0  0  0  0  0
  1  2  1  0  0  0  0
  1  3  1  0  0  0  0
  1  5  1  0  0  0  0
  2  6  1  0  0  0  0
  2  8  1  0  0  0  0
  4  1  1  0  0  0  0
  6 10  1  0  0  0  0
  7  2  1  0  0  0  0
  9  6  1  0  0  0  0
  9 13  1  0  0  0  0
  9 12  1  0  0  0  0
 11  6  1  0  0  0  0
 14  9  1  0  0  0  0
M  END
$$$$
