14
butane_opt
C  -3.955849   0.252677  -0.041138
C  -2.706546  -0.597820   0.108538
H  -4.929628  -0.407788  -0.161592
H  -3.875811   0.749819  -0.880997
H  -3.943294   1.009859   0.880616
C  -1.401174   0.222538   0.050225
H  -2.706872  -1.154887  -0.665720
H  -2.820793  -1.330669   1.072727
C  -0.144059  -0.715997  -0.015016
H  -1.333041   0.865355   0.875061
H  -1.441558   0.803165  -0.756537
H  -0.100961  -1.311311   0.805632
H   0.746517  -0.165833  -0.018869
H  -0.114833  -1.478194  -0.942759
