14
butane_opt
C  -3.919363   0.259926  -0.034320
C  -2.708817  -0.595351   0.112761
H  -4.852884  -0.414014  -0.155588
H  -3.783971   0.762217  -0.911616
H  -3.977207   1.028736   0.878812
C  -1.424927   0.201090   0.045026
H  -2.689734  -1.219696  -0.717857
H  -2.798591  -1.258785   1.064306
C  -0.167706  -0.719529  -0.019359
H  -1.348249   0.886559   0.895414
H  -1.458849   0.730761  -0.756676
H  -0.162443  -1.309655   0.865711
H   0.815638  -0.062728  -0.079721
H  -0.118192  -1.365083  -0.885268
