butane_opt
 OpenBabel08242015413D

 14 13  0  0  0  0  0  0  0  0999 V2000
   -3.9383    0.2767    0.0770 C   0  0  0  0  0  0  0  0  0  0  0  0
   -2.6964   -0.6085   -0.0393 C   0  0  0  0  0  0  0  0  0  0  0  0
   -4.8297   -0.2859    0.0868 H   0  0  0  0  0  0  0  0  0  0  0  0
   -4.1244    0.8124   -0.7723 H   0  0  0  0  0  0  0  0  0  0  0  0
   -3.8862    0.9489    0.9280 H   0  0  0  0  0  0  0  0  0  0  0  0
   -1.4012    0.1579   -0.0296 C   0  0  0  0  0  0  0  0  0  0  0  0
   -2.6791   -1.3528   -0.9528 H   0  0  0  0  0  0  0  0  0  0  0  0
   -2.7685   -1.2244    0.8561 H   0  0  0  0  0  0  0  0  0  0  0  0
   -0.1673   -0.6824    0.0784 C   0  0  0  0  0  0  0  0  0  0  0  0
   -1.3890    0.8292    0.8636 H   0  0  0  0  0  0  0  0  0  0  0  0
   -1.3275    0.8172   -0.9538 H   0  0  0  0  0  0  0  0  0  0  0  0
   -0.2031   -1.4888    1.1006 H   0  0  0  0  0  0  0  0  0  0  0  0
    0.8079   -0.0764   -0.0556 H   0  0  0  0  0  0  0  0  0  0  0  0
   -0.1889   -1.1631   -0.6745 H   0  0  0  0  0  0  0  0  0  0  0  0
  1  3  1  0  0  0  0
  1  5  1  0  0  0  0
  2  6  1  0  0  0  0
  2  1  1  0  0  0  0
  2  8  1  0  0  0  0
  4  1  1  0  0  0  0
  6  9  1  0  0  0  0
  6 10  1  0  0  0  0
  7  2  1  0  0  0  0
  9 12  1  0  0  0  0
 11  6  1  0  0  0  0
 13  9  1  0  0  0  0
 14  9  1  0  0  0  0
M  END
$$$$
