butane_opt
 OpenBabel08242015413D

 14 13  0  0  0  0  0  0  0  0999 V2000
   -3.9194    0.2599   -0.0343 C   0  0  0  0  0  0  0  0  0  0  0  0
   -2.7088   -0.5954    0.1128 C   0  0  0  0  0  0  0  0  0  0  0  0
   -4.8529   -0.4140   -0.1556 H   0  0  0  0  0  0  0  0  0  0  0  0
   -3.7840    0.7622   -0.9116 H   0  0  0  0  0  0  0  0  0  0  0  0
   -3.9772    1.0287    0.8788 H   0  0  0  0  0  0  0  0  0  0  0  0
   -1.4249    0.2011    0.0450 C   0  0  0  0  0  0  0  0  0  0  0  0
   -2.6897   -1.2197   -0.7179 H   0  0  0  0  0  0  0  0  0  0  0  0
   -2.7986   -1.2588    1.0643 H   0  0  0  0  0  0  0  0  0  0  0  0
   -0.1677   -0.7195   -0.0194 C   0  0  0  0  0  0  0  0  0  0  0  0
   -1.3482    0.8866    0.8954 H   0  0  0  0  0  0  0  0  0  0  0  0
   -1.4588    0.7308   -0.7567 H   0  0  0  0  0  0  0  0  0  0  0  0
   -0.1624   -1.3097    0.8657 H   0  0  0  0  0  0  0  0  0  0  0  0
    0.8156   -0.0627   -0.0797 H   0  0  0  0  0  0  0  0  0  0  0  0
   -0.1182   -1.3651   -0.8853 H   0  0  0  0  0  0  0  0  0  0  0  0
  1  2  1  0  0  0  0
  1  5  1  0  0  0  0
  2  8  1  0  0  0  0
  3  1  1  0  0  0  0
  4  1  1  0  0  0  0
  6  2  1  0  0  0  0
  6 10  1  0  0  0  0
  7  2  1  0  0  0  0
  9  6  1  0  0  0  0
  9 12  1  0  0  0  0
 11  6  1  0  0  0  0
 13  9  1  0  0  0  0
 14  9  1  0  0  0  0
M  END
$$$$
