14
butane_opt
C  -3.923373   0.242011  -0.010288
C  -2.697822  -0.596250   0.067086
H  -4.875849  -0.345987  -0.033204
H  -3.810460   0.936064  -0.970579
H  -3.997911   0.943622   0.854117
C  -1.429054   0.184472   0.064596
H  -2.617397  -1.288903  -0.799043
H  -2.736782  -1.269206   0.971281
C  -0.175489  -0.693557   0.005367
H  -1.387033   0.877685   0.917415
H  -1.391304   0.865622  -0.836486
H   0.021408  -1.356550   0.846284
H   0.691553  -0.123662  -0.162358
H  -0.207885  -1.354803  -0.862095
