14
butane_opt
C  -3.969211   0.274658  -0.004490
C  -2.689311  -0.647552   0.076094
H  -4.819049  -0.237925  -0.147211
H  -3.874252   0.749137  -0.834822
H  -4.109727   1.099731   0.952212
C  -1.405690   0.180575   0.033487
H  -2.572961  -1.310196  -0.763235
H  -2.767353  -1.256716   0.960788
C  -0.164302  -0.669950   0.008679
H  -1.312225   0.730723   0.851361
H  -1.352733   0.872123  -0.919331
H  -0.063007  -1.332182   0.963456
H   0.722125  -0.062913  -0.077275
H  -0.151219  -1.371672  -0.883868
