butane_opt
 OpenBabel08242015413D

 14 13  0  0  0  0  0  0  0  0999 V2000
   -3.9310    0.2709   -0.0405 C   0  0  0  0  0  0  0  0  0  0  0  0
   -2.6912   -0.6025    0.1251 C   0  0  0  0  0  0  0  0  0  0  0  0
   -4.8899   -0.3421   -0.1802 H   0  0  0  0  0  0  0  0  0  0  0  0
   -3.8847    0.8767   -0.9199 H   0  0  0  0  0  0  0  0  0  0  0  0
   -4.0714    0.9190    0.8310 H   0  0  0  0  0  0  0  0  0  0  0  0
   -1.3856    0.1532    0.0699 C   0  0  0  0  0  0  0  0  0  0  0  0
   -2.6982   -1.2417   -0.6890 H   0  0  0  0  0  0  0  0  0  0  0  0
   -2.7127   -1.2399    0.9707 H   0  0  0  0  0  0  0  0  0  0  0  0
   -0.1826   -0.6873   -0.0337 C   0  0  0  0  0  0  0  0  0  0  0  0
   -1.3485    0.8207    0.9211 H   0  0  0  0  0  0  0  0  0  0  0  0
   -1.4754    0.8410   -0.8460 H   0  0  0  0  0  0  0  0  0  0  0  0
   -0.1958   -1.2245    0.8067 H   0  0  0  0  0  0  0  0  0  0  0  0
    0.7464   -0.0951    0.0190 H   0  0  0  0  0  0  0  0  0  0  0  0
   -0.2033   -1.4063   -0.9345 H   0  0  0  0  0  0  0  0  0  0  0  0
  1  2  1  0  0  0  0
  1  5  1  0  0  0  0
  2  8  1  0  0  0  0
  3  1  1  0  0  0  0
  4  1  1  0  0  0  0
  6  2  1  0  0  0  0
  6 10  1  0  0  0  0
  7  2  1  0  0  0  0
  9 13  1  0  0  0  0
  9  6  1  0  0  0  0
  9 12  1  0  0  0  0
 11  6  1  0  0  0  0
 14  9  1  0  0  0  0
M  END
$$$$
