butane_opt
 OpenBabel08242015413D

 14 13  0  0  0  0  0  0  0  0999 V2000
   -3.9623    0.2459    0.0191 C   0  0  0  0  0  0  0  0  0  0  0  0
   -2.6981   -0.6032    0.0254 C   0  0  0  0  0  0  0  0  0  0  0  0
   -4.9044   -0.3816    0.2254 H   0  0  0  0  0  0  0  0  0  0  0  0
   -4.0746    0.9947   -0.9506 H   0  0  0  0  0  0  0  0  0  0  0  0
   -3.8610    0.8045    0.8085 H   0  0  0  0  0  0  0  0  0  0  0  0
   -1.4075    0.2078    0.0223 C   0  0  0  0  0  0  0  0  0  0  0  0
   -2.8004   -1.2852   -0.8740 H   0  0  0  0  0  0  0  0  0  0  0  0
   -2.7349   -1.1243    0.8257 H   0  0  0  0  0  0  0  0  0  0  0  0
   -0.1377   -0.7162    0.0412 C   0  0  0  0  0  0  0  0  0  0  0  0
   -1.3909    0.8950    0.8834 H   0  0  0  0  0  0  0  0  0  0  0  0
   -1.4616    0.8251   -0.8908 H   0  0  0  0  0  0  0  0  0  0  0  0
   -0.1255   -1.3305    0.9294 H   0  0  0  0  0  0  0  0  0  0  0  0
    0.8334   -0.1059   -0.0066 H   0  0  0  0  0  0  0  0  0  0  0  0
   -0.0383   -1.3726   -0.8190 H   0  0  0  0  0  0  0  0  0  0  0  0
  1  2  1  0  0  0  0
  1  3  1  0  0  0  0
  1  5  1  0  0  0  0
  2  8  1  0  0  0  0
  4  1  1  0  0  0  0
  6  2  1  0  0  0  0
  6  9  1  0  0  0  0
  6 10  1  0  0  0  0
  7  2  1  0  0  0  0
  9 12  1  0  0  0  0
 11  6  1  0  0  0  0
 13  9  1  0  0  0  0
 14  9  1  0  0  0  0
M  END
$$$$
