14
butane_opt
C  -3.942484   0.235318  -0.028171
C  -2.714610  -0.594802   0.073130
H  -4.869993  -0.331240   0.164588
H  -4.072066   1.044777  -1.020858
H  -3.909050   0.735634   0.728548
C  -1.412703   0.221511   0.069596
H  -2.693948  -1.238032  -0.772276
H  -2.726351  -1.330882   1.038386
C  -0.150470  -0.707454  -0.016101
H  -1.382135   0.890098   0.952734
H  -1.416514   0.838825  -0.827857
H  -0.027779  -1.199486   0.813456
H   0.742014  -0.158386   0.138565
H  -0.022120  -1.579887  -0.996815
