14
butane_opt
C  -3.947179   0.294638   0.045059
C  -2.687158  -0.633717   0.015383
H  -4.856870  -0.308014  -0.082371
H  -3.953125   0.770998  -0.796337
H  -3.870544   1.072989   0.977060
C  -1.401537   0.147654  -0.004527
H  -2.663125  -1.417802  -0.940515
H  -2.679004  -1.194974   0.851100
C  -0.186304  -0.680845   0.055004
H  -1.369737   0.788199   0.819723
H  -1.309692   0.857976  -0.919928
H  -0.159497  -1.430561   1.071864
H   0.753174  -0.045412  -0.166781
H  -0.257817  -1.091162  -0.677643
