butane_opt
 OpenBabel08242015413D

 14 13  0  0  0  0  0  0  0  0999 V2000
   -3.9394    0.2616    0.0514 C   0  0  0  0  0  0  0  0  0  0  0  0
   -2.6768   -0.6159   -0.0181 C   0  0  0  0  0  0  0  0  0  0  0  0
   -4.8491   -0.2894    0.2788 H   0  0  0  0  0  0  0  0  0  0  0  0
   -4.0797    1.0793   -0.9774 H   0  0  0  0  0  0  0  0  0  0  0  0
   -3.9243    0.7949    0.8267 H   0  0  0  0  0  0  0  0  0  0  0  0
   -1.4187    0.1562    0.0066 C   0  0  0  0  0  0  0  0  0  0  0  0
   -2.7242   -1.3185   -0.8704 H   0  0  0  0  0  0  0  0  0  0  0  0
   -2.6540   -1.1324    0.8067 H   0  0  0  0  0  0  0  0  0  0  0  0
   -0.1627   -0.6802    0.0588 C   0  0  0  0  0  0  0  0  0  0  0  0
   -1.3719    0.8131    0.8833 H   0  0  0  0  0  0  0  0  0  0  0  0
   -1.4037    0.7904   -0.9194 H   0  0  0  0  0  0  0  0  0  0  0  0
   -0.2219   -1.3171    0.9746 H   0  0  0  0  0  0  0  0  0  0  0  0
    0.8020   -0.0318    0.0615 H   0  0  0  0  0  0  0  0  0  0  0  0
   -0.2235   -1.3131   -0.8162 H   0  0  0  0  0  0  0  0  0  0  0  0
  1  3  1  0  0  0  0
  1  5  1  0  0  0  0
  2  6  1  0  0  0  0
  2  1  1  0  0  0  0
  2  8  1  0  0  0  0
  4  1  1  0  0  0  0
  6  9  1  0  0  0  0
  6 10  1  0  0  0  0
  7  2  1  0  0  0  0
  9 13  1  0  0  0  0
  9 12  1  0  0  0  0
 11  6  1  0  0  0  0
 14  9  1  0  0  0  0
M  END
$$$$
