butane_opt
 OpenBabel08242015413D

 14 13  0  0  0  0  0  0  0  0999 V2000
   -3.9473    0.2686    0.0038 C   0  0  0  0  0  0  0  0  0  0  0  0
   -2.6982   -0.6130    0.0647 C   0  0  0  0  0  0  0  0  0  0  0  0
   -4.8503   -0.3479    0.0392 H   0  0  0  0  0  0  0  0  0  0  0  0
   -3.9548    0.9359   -0.9309 H   0  0  0  0  0  0  0  0  0  0  0  0
   -3.9544    0.8659    0.7947 H   0  0  0  0  0  0  0  0  0  0  0  0
   -1.3998    0.1837    0.0170 C   0  0  0  0  0  0  0  0  0  0  0  0
   -2.6783   -1.2603   -0.7705 H   0  0  0  0  0  0  0  0  0  0  0  0
   -2.6699   -1.3039    0.9940 H   0  0  0  0  0  0  0  0  0  0  0  0
   -0.1643   -0.6934    0.0214 C   0  0  0  0  0  0  0  0  0  0  0  0
   -1.3698    0.8306    0.8759 H   0  0  0  0  0  0  0  0  0  0  0  0
   -1.4086    0.8012   -0.8603 H   0  0  0  0  0  0  0  0  0  0  0  0
   -0.1943   -1.1443    0.8064 H   0  0  0  0  0  0  0  0  0  0  0  0
    0.7383   -0.0987    0.1316 H   0  0  0  0  0  0  0  0  0  0  0  0
   -0.1604   -1.5032   -0.9463 H   0  0  0  0  0  0  0  0  0  0  0  0
  1  3  1  0  0  0  0
  1  2  1  0  0  0  0
  1  5  1  0  0  0  0
  2  8  1  0  0  0  0
  4  1  1  0  0  0  0
  6  9  1  0  0  0  0
  6  2  1  0  0  0  0
  6 10  1  0  0  0  0
  7  2  1  0  0  0  0
  9 13  1  0  0  0  0
  9 12  1  0  0  0  0
 11  6  1  0  0  0  0
 14  9  1  0  0  0  0
M  END
$$$$
