butane_opt
 OpenBabel08242015413D

 14 13  0  0  0  0  0  0  0  0999 V2000
   -3.9408    0.2757   -0.0168 C   0  0  0  0  0  0  0  0  0  0  0  0
   -2.7181   -0.6369    0.0653 C   0  0  0  0  0  0  0  0  0  0  0  0
   -4.8319   -0.3357   -0.0624 H   0  0  0  0  0  0  0  0  0  0  0  0
   -3.9832    0.8918   -0.9220 H   0  0  0  0  0  0  0  0  0  0  0  0
   -4.0302    0.8839    0.8049 H   0  0  0  0  0  0  0  0  0  0  0  0
   -1.4068    0.2084    0.0881 C   0  0  0  0  0  0  0  0  0  0  0  0
   -2.7269   -1.2863   -0.7999 H   0  0  0  0  0  0  0  0  0  0  0  0
   -2.8134   -1.2313    0.9090 H   0  0  0  0  0  0  0  0  0  0  0  0
   -0.1374   -0.7088   -0.0085 C   0  0  0  0  0  0  0  0  0  0  0  0
   -1.4208    0.8788    0.9520 H   0  0  0  0  0  0  0  0  0  0  0  0
   -1.3368    0.7920   -0.8249 H   0  0  0  0  0  0  0  0  0  0  0  0
    0.0358   -1.4109    0.9322 H   0  0  0  0  0  0  0  0  0  0  0  0
    0.7763   -0.1357   -0.2847 H   0  0  0  0  0  0  0  0  0  0  0  0
   -0.2580   -1.1691   -0.7958 H   0  0  0  0  0  0  0  0  0  0  0  0
  1  2  1  0  0  0  0
  1  5  1  0  0  0  0
  2  6  1  0  0  0  0
  2  8  1  0  0  0  0
  3  1  1  0  0  0  0
  4  1  1  0  0  0  0
  6 10  1  0  0  0  0
  7  2  1  0  0  0  0
  9  6  1  0  0  0  0
  9 12  1  0  0  0  0
 11  6  1  0  0  0  0
 13  9  1  0  0  0  0
 14  9  1  0  0  0  0
M  END
$$$$
