14
butane_opt
C  -3.956490   0.285413  -0.019891
C  -2.703899  -0.649487   0.051256
H  -4.873990  -0.256942   0.270811
H  -4.135506   1.007191  -0.959267
H  -3.917430   0.863968   0.809874
C  -1.381185   0.168835   0.034708
H  -2.719562  -1.242360  -0.777693
H  -2.715354  -1.274562   0.958560
C  -0.145865  -0.678461   0.018285
H  -1.372626   0.852648   0.912634
H  -1.429722   0.772628  -0.813880
H  -0.245141  -1.215466   0.846163
H   0.804881  -0.024696   0.106766
H  -0.171614  -1.468791  -0.946853
