14
butane_opt
C  -3.940770   0.275722  -0.016835
C  -2.718068  -0.636916   0.065270
H  -4.831928  -0.335744  -0.062387
H  -3.983230   0.891797  -0.921958
H  -4.030170   0.883869   0.804945
C  -1.406786   0.208362   0.088142
H  -2.726875  -1.286341  -0.799923
H  -2.813351  -1.231273   0.909033
C  -0.137359  -0.708771  -0.008547
H  -1.420800   0.878836   0.952043
H  -1.336830   0.792025  -0.824886
H   0.035777  -1.410934   0.932219
H   0.776345  -0.135668  -0.284730
H  -0.257963  -1.169112  -0.795808
