14
butane_opt
C  -3.925106   0.246343  -0.023347
C  -2.683533  -0.573310   0.058437
H  -4.924327  -0.475266   0.281518
H  -4.053310   1.084579  -1.076189
H  -3.849411   0.646372   0.681494
C  -1.422387   0.196814   0.070679
H  -2.672455  -1.246736  -0.785729
H  -2.759047  -1.206303   1.023743
C  -0.167084  -0.707371  -0.015286
H  -1.432192   0.940709   0.967037
H  -1.433163   0.692971  -0.725890
H  -0.141036  -1.288706   0.855737
H   0.743460  -0.127031   0.060012
H  -0.105306  -1.449611  -0.963789
