butane_opt
 OpenBabel08242015413D

 14 13  0  0  0  0  0  0  0  0999 V2000
   -3.9251    0.2463   -0.0233 C   0  0  0  0  0  0  0  0  0  0  0  0
   -2.6835   -0.5733    0.0584 C   0  0  0  0  0  0  0  0  0  0  0  0
   -4.9243   -0.4753    0.2815 H   0  0  0  0  0  0  0  0  0  0  0  0
   -4.0533    1.0846   -1.0762 H   0  0  0  0  0  0  0  0  0  0  0  0
   -3.8494    0.6464    0.6815 H   0  0  0  0  0  0  0  0  0  0  0  0
   -1.4224    0.1968    0.0707 C   0  0  0  0  0  0  0  0  0  0  0  0
   -2.6725   -1.2467   -0.7857 H   0  0  0  0  0  0  0  0  0  0  0  0
   -2.7590   -1.2063    1.0237 H   0  0  0  0  0  0  0  0  0  0  0  0
   -0.1671   -0.7074   -0.0153 C   0  0  0  0  0  0  0  0  0  0  0  0
   -1.4322    0.9407    0.9670 H   0  0  0  0  0  0  0  0  0  0  0  0
   -1.4332    0.6930   -0.7259 H   0  0  0  0  0  0  0  0  0  0  0  0
   -0.1410   -1.2887    0.8557 H   0  0  0  0  0  0  0  0  0  0  0  0
    0.7435   -0.1270    0.0600 H   0  0  0  0  0  0  0  0  0  0  0  0
   -0.1053   -1.4496   -0.9638 H   0  0  0  0  0  0  0  0  0  0  0  0
  1  2  1  0  0  0  0
  1  3  1  0  0  0  0
  1  5  1  0  0  0  0
  2  6  1  0  0  0  0
  2  8  1  0  0  0  0
  4  1  1  0  0  0  0
  6 10  1  0  0  0  0
  7  2  1  0  0  0  0
  9 13  1  0  0  0  0
  9  6  1  0  0  0  0
  9 12  1  0  0  0  0
 11  6  1  0  0  0  0
 14  9  1  0  0  0  0
M  END
$$$$
