14
butane_opt
C  -3.947186   0.288336   0.063752
C  -2.689967  -0.637564   0.037952
H  -4.826010  -0.219119  -0.252849
H  -3.859505   0.710953  -0.712044
H  -4.111308   1.088463   1.010861
C  -1.398808   0.159089  -0.054430
H  -2.724428  -1.389005  -0.897452
H  -2.673219  -1.246551   0.886382
C  -0.191429  -0.669882   0.066083
H  -1.319230   0.773693   0.795482
H  -1.277097   0.850625  -1.018862
H  -0.139665  -1.332341   1.019880
H   0.747486  -0.064556   0.022348
H  -0.133089  -1.315655  -0.752869
