14
butane_opt
C  -3.938790   0.258982  -0.005838
C  -2.725547  -0.615529   0.058632
H  -4.835273  -0.328843   0.237786
H  -4.013541   1.063741  -1.077627
H  -3.933426   0.694973   0.710323
C  -1.406187   0.215914   0.052110
H  -2.778361  -1.305600  -0.860105
H  -2.774446  -1.245983   0.944603
C  -0.121794  -0.706341   0.011779
H  -1.364084   0.907140   0.923067
H  -1.478822   0.778589  -0.798215
H  -0.118275  -1.198638   0.829906
H   0.712859  -0.175340   0.018976
H  -0.123363  -1.495168  -0.918863
