butane_opt
 OpenBabel08242015413D

 14 13  0  0  0  0  0  0  0  0999 V2000
   -3.9355    0.2593    0.0212 C   0  0  0  0  0  0  0  0  0  0  0  0
   -2.6972   -0.6156    0.0365 C   0  0  0  0  0  0  0  0  0  0  0  0
   -4.8830   -0.3884   -0.1717 H   0  0  0  0  0  0  0  0  0  0  0  0
   -3.9586    0.6224   -0.7151 H   0  0  0  0  0  0  0  0  0  0  0  0
   -4.0172    1.1735    1.0447 H   0  0  0  0  0  0  0  0  0  0  0  0
   -1.4224    0.1971   -0.0167 C   0  0  0  0  0  0  0  0  0  0  0  0
   -2.7285   -1.2382   -0.7465 H   0  0  0  0  0  0  0  0  0  0  0  0
   -2.6913   -1.2562    0.9615 H   0  0  0  0  0  0  0  0  0  0  0  0
   -0.1557   -0.6971    0.0401 C   0  0  0  0  0  0  0  0  0  0  0  0
   -1.3446    0.8071    0.7666 H   0  0  0  0  0  0  0  0  0  0  0  0
   -1.3719    0.8729   -0.9212 H   0  0  0  0  0  0  0  0  0  0  0  0
   -0.0485   -1.3556    0.9738 H   0  0  0  0  0  0  0  0  0  0  0  0
    0.6761   -0.1710    0.0218 H   0  0  0  0  0  0  0  0  0  0  0  0
   -0.1091   -1.2808   -0.7142 H   0  0  0  0  0  0  0  0  0  0  0  0
  1  2  1  0  0  0  0
  1  5  1  0  0  0  0
  2  8  1  0  0  0  0
  3  1  1  0  0  0  0
  4  1  1  0  0  0  0
  6  2  1  0  0  0  0
  6  9  1  0  0  0  0
  6 10  1  0  0  0  0
  7  2  1  0  0  0  0
  9 12  1  0  0  0  0
 11  6  1  0  0  0  0
 13  9  1  0  0  0  0
 14  9  1  0  0  0  0
M  END
$$$$
