butane_opt
 OpenBabel08242015413D

 14 13  0  0  0  0  0  0  0  0999 V2000
   -3.9396    0.2424    0.0739 C   0  0  0  0  0  0  0  0  0  0  0  0
   -2.6927   -0.5843   -0.0349 C   0  0  0  0  0  0  0  0  0  0  0  0
   -4.8940   -0.4092    0.1361 H   0  0  0  0  0  0  0  0  0  0  0  0
   -3.9454    0.8327   -0.8359 H   0  0  0  0  0  0  0  0  0  0  0  0
   -3.7869    0.9434    0.9750 H   0  0  0  0  0  0  0  0  0  0  0  0
   -1.4213    0.2007   -0.0351 C   0  0  0  0  0  0  0  0  0  0  0  0
   -2.7835   -1.2271   -0.8990 H   0  0  0  0  0  0  0  0  0  0  0  0
   -2.5969   -1.1707    0.7783 H   0  0  0  0  0  0  0  0  0  0  0  0
   -0.1724   -0.7191    0.0815 C   0  0  0  0  0  0  0  0  0  0  0  0
   -1.4243    0.8818    0.8311 H   0  0  0  0  0  0  0  0  0  0  0  0
   -1.3227    0.8193   -0.9407 H   0  0  0  0  0  0  0  0  0  0  0  0
   -0.2201   -1.4542    1.1076 H   0  0  0  0  0  0  0  0  0  0  0  0
    0.7452   -0.1119   -0.0265 H   0  0  0  0  0  0  0  0  0  0  0  0
   -0.0763   -1.2600   -0.7072 H   0  0  0  0  0  0  0  0  0  0  0  0
  1  3  1  0  0  0  0
  1  5  1  0  0  0  0
  2  1  1  0  0  0  0
  2  8  1  0  0  0  0
  4  1  1  0  0  0  0
  6  2  1  0  0  0  0
  6  9  1  0  0  0  0
  6 10  1  0  0  0  0
  7  2  1  0  0  0  0
  9 12  1  0  0  0  0
 11  6  1  0  0  0  0
 13  9  1  0  0  0  0
 14  9  1  0  0  0  0
M  END
$$$$
