butane_opt
 OpenBabel08242015413D

 14 13  0  0  0  0  0  0  0  0999 V2000
   -3.9290    0.2668    0.0593 C   0  0  0  0  0  0  0  0  0  0  0  0
   -2.6991   -0.6324   -0.0225 C   0  0  0  0  0  0  0  0  0  0  0  0
   -4.8735   -0.3224    0.1123 H   0  0  0  0  0  0  0  0  0  0  0  0
   -4.0005    0.8974   -0.8394 H   0  0  0  0  0  0  0  0  0  0  0  0
   -3.9676    1.0470    0.9536 H   0  0  0  0  0  0  0  0  0  0  0  0
   -1.3922    0.1834   -0.0307 C   0  0  0  0  0  0  0  0  0  0  0  0
   -2.7687   -1.3645   -0.9213 H   0  0  0  0  0  0  0  0  0  0  0  0
   -2.6404   -1.2060    0.8658 H   0  0  0  0  0  0  0  0  0  0  0  0
   -0.1718   -0.6921    0.0769 C   0  0  0  0  0  0  0  0  0  0  0  0
   -1.4224    0.9503    0.8681 H   0  0  0  0  0  0  0  0  0  0  0  0
   -1.3616    0.7711   -0.8725 H   0  0  0  0  0  0  0  0  0  0  0  0
   -0.1680   -1.4702    1.1184 H   0  0  0  0  0  0  0  0  0  0  0  0
    0.7397   -0.1069   -0.1551 H   0  0  0  0  0  0  0  0  0  0  0  0
   -0.2392   -1.1843   -0.6702 H   0  0  0  0  0  0  0  0  0  0  0  0
  1  3  1  0  0  0  0
  1  5  1  0  0  0  0
  2  1  1  0  0  0  0
  2  8  1  0  0  0  0
  4  1  1  0  0  0  0
  6  2  1  0  0  0  0
  6  9  1  0  0  0  0
  6 10  1  0  0  0  0
  7  2  1  0  0  0  0
  9 12  1  0  0  0  0
 11  6  1  0  0  0  0
 13  9  1  0  0  0  0
 14  9  1  0  0  0  0
M  END
$$$$
