14
butane_opt
C  -3.929042   0.266850   0.059345
C  -2.699065  -0.632378  -0.022462
H  -4.873519  -0.322357   0.112346
H  -4.000474   0.897401  -0.839442
H  -3.967580   1.047028   0.953589
C  -1.392182   0.183380  -0.030682
H  -2.768722  -1.364539  -0.921251
H  -2.640373  -1.205968   0.865777
C  -0.171787  -0.692083   0.076911
H  -1.422436   0.950257   0.868062
H  -1.361563   0.771094  -0.872474
H  -0.167979  -1.470224   1.118429
H   0.739669  -0.106923  -0.155101
H  -0.239183  -1.184339  -0.670247
