butane_opt
 OpenBabel08242015413D

 14 13  0  0  0  0  0  0  0  0999 V2000
   -3.9270    0.2868    0.0261 C   0  0  0  0  0  0  0  0  0  0  0  0
   -2.6973   -0.6371    0.0184 C   0  0  0  0  0  0  0  0  0  0  0  0
   -4.8009   -0.2594    0.0609 H   0  0  0  0  0  0  0  0  0  0  0  0
   -3.9441    0.9213   -0.8958 H   0  0  0  0  0  0  0  0  0  0  0  0
   -3.9392    0.9253    0.9189 H   0  0  0  0  0  0  0  0  0  0  0  0
   -1.4114    0.1630    0.0123 C   0  0  0  0  0  0  0  0  0  0  0  0
   -2.7712   -1.4105   -0.9189 H   0  0  0  0  0  0  0  0  0  0  0  0
   -2.6247   -1.1937    0.8742 H   0  0  0  0  0  0  0  0  0  0  0  0
   -0.1866   -0.6755    0.0529 C   0  0  0  0  0  0  0  0  0  0  0  0
   -1.3943    0.8369    0.9086 H   0  0  0  0  0  0  0  0  0  0  0  0
   -1.3271    0.7916   -0.8775 H   0  0  0  0  0  0  0  0  0  0  0  0
   -0.1357   -1.4264    1.0132 H   0  0  0  0  0  0  0  0  0  0  0  0
    0.8137   -0.0220   -0.2123 H   0  0  0  0  0  0  0  0  0  0  0  0
   -0.2540   -1.2528   -0.7538 H   0  0  0  0  0  0  0  0  0  0  0  0
  1  3  1  0  0  0  0
  1  5  1  0  0  0  0
  2  1  1  0  0  0  0
  2  8  1  0  0  0  0
  4  1  1  0  0  0  0
  6  2  1  0  0  0  0
  6  9  1  0  0  0  0
  6 10  1  0  0  0  0
  7  2  1  0  0  0  0
  9 12  1  0  0  0  0
 11  6  1  0  0  0  0
 13  9  1  0  0  0  0
 14  9  1  0  0  0  0
M  END
$$$$
