butane_opt
 OpenBabel08242015413D

 14 13  0  0  0  0  0  0  0  0999 V2000
   -3.9388    0.2590   -0.0058 C   0  0  0  0  0  0  0  0  0  0  0  0
   -2.7255   -0.6155    0.0586 C   0  0  0  0  0  0  0  0  0  0  0  0
   -4.8353   -0.3288    0.2378 H   0  0  0  0  0  0  0  0  0  0  0  0
   -4.0135    1.0637   -1.0776 H   0  0  0  0  0  0  0  0  0  0  0  0
   -3.9334    0.6950    0.7103 H   0  0  0  0  0  0  0  0  0  0  0  0
   -1.4062    0.2159    0.0521 C   0  0  0  0  0  0  0  0  0  0  0  0
   -2.7784   -1.3056   -0.8601 H   0  0  0  0  0  0  0  0  0  0  0  0
   -2.7744   -1.2460    0.9446 H   0  0  0  0  0  0  0  0  0  0  0  0
   -0.1218   -0.7063    0.0118 C   0  0  0  0  0  0  0  0  0  0  0  0
   -1.3641    0.9071    0.9231 H   0  0  0  0  0  0  0  0  0  0  0  0
   -1.4788    0.7786   -0.7982 H   0  0  0  0  0  0  0  0  0  0  0  0
   -0.1183   -1.1986    0.8299 H   0  0  0  0  0  0  0  0  0  0  0  0
    0.7129   -0.1753    0.0190 H   0  0  0  0  0  0  0  0  0  0  0  0
   -0.1234   -1.4952   -0.9189 H   0  0  0  0  0  0  0  0  0  0  0  0
  1  2  1  0  0  0  0
  1  3  1  0  0  0  0
  1  5  1  0  0  0  0
  2  8  1  0  0  0  0
  4  1  1  0  0  0  0
  6  2  1  0  0  0  0
  6 10  1  0  0  0  0
  7  2  1  0  0  0  0
  9 13  1  0  0  0  0
  9  6  1  0  0  0  0
  9 12  1  0  0  0  0
 11  6  1  0  0  0  0
 14  9  1  0  0  0  0
M  END
$$$$
