14
butane_opt
C  -3.945055   0.276823   0.021289
C  -2.701787  -0.626786   0.008548
H  -4.798640  -0.274080   0.146572
H  -3.999488   0.960557  -0.858017
H  -3.871836   0.931112   0.888614
C  -1.395968   0.148442   0.032207
H  -2.658455  -1.329352  -0.912565
H  -2.663979  -1.197963   0.865056
C  -0.176507  -0.687984   0.039658
H  -1.388824   0.817262   0.868107
H  -1.364233   0.888124  -0.939050
H  -0.143690  -1.356293   0.971488
H   0.817217  -0.003027  -0.051136
H  -0.326937  -1.224385  -0.744543
