14
butane_opt
C  -3.926988   0.286817   0.026059
C  -2.697271  -0.637138   0.018377
H  -4.800902  -0.259389   0.060902
H  -3.944056   0.921309  -0.895762
H  -3.939174   0.925258   0.918891
C  -1.411391   0.163022   0.012341
H  -2.771184  -1.410539  -0.918896
H  -2.624730  -1.193657   0.874179
C  -0.186624  -0.675543   0.052923
H  -1.394296   0.836896   0.908565
H  -1.327079   0.791649  -0.877476
H  -0.135696  -1.426437   1.013235
H   0.813705  -0.021962  -0.212311
H  -0.254003  -1.252835  -0.753833
