14
butane_opt
C  -3.939593   0.242351   0.073942
C  -2.692662  -0.584307  -0.034949
H  -4.894017  -0.409240   0.136148
H  -3.945414   0.832716  -0.835926
H  -3.786886   0.943377   0.974953
C  -1.421254   0.200728  -0.035098
H  -2.783518  -1.227084  -0.898987
H  -2.596947  -1.170726   0.778280
C  -0.172416  -0.719091   0.081526
H  -1.424261   0.881762   0.831096
H  -1.322678   0.819304  -0.940700
H  -0.220112  -1.454197   1.107578
H   0.745177  -0.111903  -0.026541
H  -0.076312  -1.259974  -0.707206
