14
butane_opt
C  -3.952117   0.263582  -0.016889
C  -2.708166  -0.630852   0.088830
H  -4.853218  -0.267991  -0.095269
H  -3.949337   0.923656  -0.956622
H  -4.050433   0.884280   0.772569
C  -1.402413   0.201611   0.078396
H  -2.716133  -1.332164  -0.792374
H  -2.822084  -1.240489   0.920359
C  -0.130668  -0.702611  -0.022537
H  -1.356581   0.932988   0.976373
H  -1.384790   0.850025  -0.843993
H  -0.078081  -1.399372   0.915707
H   0.752084  -0.114876  -0.156966
H  -0.241132  -1.290754  -0.831381
