14
butane_opt
C  -3.922698   0.278520  -0.024770
C  -2.697871  -0.639383   0.104575
H  -4.807026  -0.304447  -0.201806
H  -3.841577   0.800273  -0.898393
H  -4.095845   1.033630   0.893085
C  -1.394169   0.175197   0.058700
H  -2.652178  -1.233457  -0.681315
H  -2.808397  -1.250318   0.972506
C  -0.188288  -0.692479  -0.017486
H  -1.344463   0.847959   0.873526
H  -1.504451   0.877099  -0.862018
H  -0.164860  -1.265768   0.856186
H   0.778571  -0.023227  -0.090161
H  -0.159070  -1.413775  -0.865581
