14
butane_opt
C  -3.945512   0.264862   0.077474
C  -2.682790  -0.615530  -0.012689
H  -4.811361  -0.337492   0.033962
H  -3.996767   0.868304  -0.776060
H  -3.934677   0.933995   0.943700
C  -1.420508   0.169417  -0.066328
H  -2.760763  -1.247623  -0.795703
H  -2.614390  -1.219208   0.880876
C  -0.154072  -0.694133   0.085211
H  -1.427267   0.822946   0.747464
H  -1.360946   0.863760  -0.969984
H  -0.352629  -1.181392   0.921772
H   0.784597  -0.058615   0.248781
H  -0.105595  -1.421791  -0.817544
