butane_opt
 OpenBabel08242015413D

 14 13  0  0  0  0  0  0  0  0999 V2000
   -3.9444    0.2392    0.0793 C   0  0  0  0  0  0  0  0  0  0  0  0
   -2.7106   -0.5949    0.0000 C   0  0  0  0  0  0  0  0  0  0  0  0
   -4.8613   -0.3581    0.0640 H   0  0  0  0  0  0  0  0  0  0  0  0
   -4.0272    0.8753   -0.7802 H   0  0  0  0  0  0  0  0  0  0  0  0
   -3.9197    0.9133    0.9058 H   0  0  0  0  0  0  0  0  0  0  0  0
   -1.4175    0.2046   -0.0602 C   0  0  0  0  0  0  0  0  0  0  0  0
   -2.7300   -1.3318   -0.8668 H   0  0  0  0  0  0  0  0  0  0  0  0
   -2.6736   -1.1596    0.8311 H   0  0  0  0  0  0  0  0  0  0  0  0
   -0.1376   -0.7165    0.0835 C   0  0  0  0  0  0  0  0  0  0  0  0
   -1.4435    0.8615    0.7420 H   0  0  0  0  0  0  0  0  0  0  0  0
   -1.3677    0.9391   -1.0546 H   0  0  0  0  0  0  0  0  0  0  0  0
   -0.2705   -1.2530    0.9173 H   0  0  0  0  0  0  0  0  0  0  0  0
    0.7880   -0.1227    0.2644 H   0  0  0  0  0  0  0  0  0  0  0  0
    0.0156   -1.4416   -0.8226 H   0  0  0  0  0  0  0  0  0  0  0  0
  1  5  1  0  0  0  0
  2  1  1  0  0  0  0
  2  8  1  0  0  0  0
  3  1  1  0  0  0  0
  4  1  1  0  0  0  0
  6  2  1  0  0  0  0
  6  9  1  0  0  0  0
  6 10  1  0  0  0  0
  7  2  1  0  0  0  0
  9 13  1  0  0  0  0
  9 12  1  0  0  0  0
 11  6  1  0  0  0  0
 14  9  1  0  0  0  0
M  END
$$$$
