butane_opt
 OpenBabel08242015413D

 14 13  0  0  0  0  0  0  0  0999 V2000
   -3.9188    0.2750    0.0365 C   0  0  0  0  0  0  0  0  0  0  0  0
   -2.6834   -0.6332   -0.0010 C   0  0  0  0  0  0  0  0  0  0  0  0
   -4.8284   -0.3683    0.1730 H   0  0  0  0  0  0  0  0  0  0  0  0
   -4.0560    0.9326   -0.8733 H   0  0  0  0  0  0  0  0  0  0  0  0
   -3.9336    0.9871    0.8954 H   0  0  0  0  0  0  0  0  0  0  0  0
   -1.4129    0.1722   -0.0011 C   0  0  0  0  0  0  0  0  0  0  0  0
   -2.6957   -1.2797   -0.8513 H   0  0  0  0  0  0  0  0  0  0  0  0
   -2.7062   -1.3449    0.9012 H   0  0  0  0  0  0  0  0  0  0  0  0
   -0.1783   -0.6747    0.0512 C   0  0  0  0  0  0  0  0  0  0  0  0
   -1.5000    0.8762    0.8758 H   0  0  0  0  0  0  0  0  0  0  0  0
   -1.3697    0.7803   -0.8979 H   0  0  0  0  0  0  0  0  0  0  0  0
   -0.1803   -1.3186    0.9755 H   0  0  0  0  0  0  0  0  0  0  0  0
    0.7098   -0.0838    0.0061 H   0  0  0  0  0  0  0  0  0  0  0  0
   -0.1429   -1.3167   -0.7905 H   0  0  0  0  0  0  0  0  0  0  0  0
  1  3  1  0  0  0  0
  1  5  1  0  0  0  0
  2  1  1  0  0  0  0
  2  8  1  0  0  0  0
  4  1  1  0  0  0  0
  6  2  1  0  0  0  0
  6  9  1  0  0  0  0
  6 10  1  0  0  0  0
  7  2  1  0  0  0  0
  9 12  1  0  0  0  0
 11  6  1  0  0  0  0
 13  9  1  0  0  0  0
 14  9  1  0  0  0  0
M  END
$$$$
