butane_opt
 OpenBabel08242015413D

 14 13  0  0  0  0  0  0  0  0999 V2000
   -3.9343    0.2534    0.0194 C   0  0  0  0  0  0  0  0  0  0  0  0
   -2.6915   -0.6100    0.0186 C   0  0  0  0  0  0  0  0  0  0  0  0
   -4.8260   -0.3018    0.2729 H   0  0  0  0  0  0  0  0  0  0  0  0
   -4.0473    1.0851   -1.0169 H   0  0  0  0  0  0  0  0  0  0  0  0
   -3.8394    0.7165    0.7696 H   0  0  0  0  0  0  0  0  0  0  0  0
   -1.4238    0.1826    0.0387 C   0  0  0  0  0  0  0  0  0  0  0  0
   -2.6919   -1.3429   -0.8379 H   0  0  0  0  0  0  0  0  0  0  0  0
   -2.8350   -1.2042    0.8816 H   0  0  0  0  0  0  0  0  0  0  0  0
   -0.1532   -0.6900    0.0307 C   0  0  0  0  0  0  0  0  0  0  0  0
   -1.4530    0.8713    0.9186 H   0  0  0  0  0  0  0  0  0  0  0  0
   -1.4151    0.9000   -0.8875 H   0  0  0  0  0  0  0  0  0  0  0  0
   -0.1407   -1.2272    0.8724 H   0  0  0  0  0  0  0  0  0  0  0  0
    0.7512   -0.1318    0.0232 H   0  0  0  0  0  0  0  0  0  0  0  0
   -0.1037   -1.4598   -0.8761 H   0  0  0  0  0  0  0  0  0  0  0  0
  1  3  1  0  0  0  0
  1  5  1  0  0  0  0
  2  1  1  0  0  0  0
  2  6  1  0  0  0  0
  2  8  1  0  0  0  0
  4  1  1  0  0  0  0
  6 10  1  0  0  0  0
  7  2  1  0  0  0  0
  9  6  1  0  0  0  0
  9 12  1  0  0  0  0
 11  6  1  0  0  0  0
 13  9  1  0  0  0  0
 14  9  1  0  0  0  0
M  END
$$$$
