14
butane_opt
C  -3.934807   0.262054   0.048068
C  -2.694963  -0.613777  -0.001301
H  -4.860731  -0.360975   0.042646
H  -3.944283   0.855083  -0.843444
H  -3.904422   0.957844   0.928110
C  -1.418584   0.194533  -0.006620
H  -2.716382  -1.326169  -0.895336
H  -2.668617  -1.228503   0.866039
C  -0.170777  -0.699061   0.054731
H  -1.356029   0.871556   0.863826
H  -1.400681   0.807872  -0.910275
H  -0.108657  -1.427645   1.031965
H   0.732991  -0.134917  -0.055069
H  -0.165076  -1.206613  -0.704894
