14
butane_opt
C  -3.966566   0.279412   0.045219
C  -2.714923  -0.623571   0.004296
H  -4.880748  -0.328247  -0.032177
H  -3.947233   0.653700  -0.747228
H  -4.011761   1.107764   1.020655
C  -1.392332   0.178511  -0.030387
H  -2.749827  -1.283178  -0.834392
H  -2.700814  -1.198917   0.890661
C  -0.134482  -0.680243   0.071459
H  -1.448262   0.817928   0.787978
H  -1.253632   0.786023  -0.919618
H  -0.071354  -1.486468   1.095321
H   0.741780  -0.122623  -0.119992
H  -0.205319  -1.271625  -0.757933
