butane_opt
 OpenBabel08242015413D

 14 13  0  0  0  0  0  0  0  0999 V2000
   -3.9193    0.2453    0.0699 C   0  0  0  0  0  0  0  0  0  0  0  0
   -2.7034   -0.5931   -0.0345 C   0  0  0  0  0  0  0  0  0  0  0  0
   -4.8214   -0.3290    0.2612 H   0  0  0  0  0  0  0  0  0  0  0  0
   -4.0570    0.9154   -0.8498 H   0  0  0  0  0  0  0  0  0  0  0  0
   -3.8606    0.8653    0.9051 H   0  0  0  0  0  0  0  0  0  0  0  0
   -1.4152    0.2024   -0.0342 C   0  0  0  0  0  0  0  0  0  0  0  0
   -2.7346   -1.2864   -0.9002 H   0  0  0  0  0  0  0  0  0  0  0  0
   -2.7591   -1.1930    0.7887 H   0  0  0  0  0  0  0  0  0  0  0  0
   -0.1744   -0.7235    0.0709 C   0  0  0  0  0  0  0  0  0  0  0  0
   -1.3853    0.8979    0.8447 H   0  0  0  0  0  0  0  0  0  0  0  0
   -1.3548    0.7950   -0.8994 H   0  0  0  0  0  0  0  0  0  0  0  0
   -0.2105   -1.3536    1.0407 H   0  0  0  0  0  0  0  0  0  0  0  0
    0.7417   -0.1145    0.0643 H   0  0  0  0  0  0  0  0  0  0  0  0
   -0.0254   -1.2385   -0.6707 H   0  0  0  0  0  0  0  0  0  0  0  0
  1  3  1  0  0  0  0
  1  5  1  0  0  0  0
  2  6  1  0  0  0  0
  2  1  1  0  0  0  0
  2  8  1  0  0  0  0
  4  1  1  0  0  0  0
  6  9  1  0  0  0  0
  6 10  1  0  0  0  0
  7  2  1  0  0  0  0
  9 12  1  0  0  0  0
 11  6  1  0  0  0  0
 13  9  1  0  0  0  0
 14  9  1  0  0  0  0
M  END
$$$$
