14
butane_opt
C  -3.957554   0.278316  -0.043254
C  -2.690877  -0.628671   0.106387
H  -4.939365  -0.369433  -0.072769
H  -3.920116   0.916743  -0.966293
H  -4.054230   0.953339   0.838249
C  -1.403342   0.165447   0.070728
H  -2.708428  -1.309390  -0.743057
H  -2.728385  -1.210201   0.975333
C  -0.148162  -0.676073  -0.031131
H  -1.293632   0.871034   0.957869
H  -1.487970   0.765291  -0.731878
H  -0.040812  -1.368944   0.886998
H   0.774222  -0.119500  -0.086091
H  -0.222407  -1.270351  -0.839456
