14
butane_opt
C  -3.959979   0.238490   0.051874
C  -2.715539  -0.603617   0.011866
H  -4.876105  -0.349365  -0.067448
H  -3.890678   0.726794  -0.751636
H  -4.014989   1.162404   1.027476
C  -1.400877   0.208818  -0.029994
H  -2.788603  -1.285371  -0.903044
H  -2.745132  -1.211189   0.900328
C  -0.123818  -0.717386   0.052793
H  -1.469063   0.918314   0.828356
H  -1.389739   0.864977  -0.950946
H  -0.159761  -1.500460   1.078153
H   0.779070  -0.120408  -0.056607
H  -0.055554  -1.204678  -0.665706
