14
butane_opt
C  -3.973080   0.274480  -0.043643
C  -2.695256  -0.638257   0.123385
H  -4.803719  -0.222785  -0.129433
H  -3.952482   0.827561  -0.918564
H  -4.062426   1.036976   0.840746
C  -1.406827   0.175021   0.056529
H  -2.627463  -1.306173  -0.710262
H  -2.789948  -1.338833   1.039729
C  -0.142801  -0.675657  -0.027472
H  -1.343013   0.818417   0.918155
H  -1.362017   0.771968  -0.806853
H  -0.071825  -1.205603   0.821875
H   0.800495  -0.107699   0.008185
H  -0.208107  -1.354638  -0.922982
