14
butane_opt
C  -3.927484   0.248627  -0.035472
C  -2.700682  -0.592837   0.084422
H  -4.881393  -0.404553  -0.071708
H  -3.901254   0.946289  -0.957778
H  -3.899901   0.887555   0.800665
C  -1.423842   0.202431   0.076289
H  -2.669472  -1.248971  -0.711927
H  -2.795854  -1.320695   1.040154
C  -0.175760  -0.711430  -0.018069
H  -1.337646   1.001784   0.984718
H  -1.381803   0.740394  -0.768269
H   0.057916  -1.352243   0.885709
H   0.709217  -0.135839  -0.176091
H  -0.190796  -1.349164  -0.881676
