14
butane_opt
C  -3.923127   0.235818   0.035933
C  -2.692909  -0.596683  -0.005806
H  -4.863157  -0.394318   0.055219
H  -3.908689   0.848970  -0.843070
H  -3.859577   1.010746   0.962547
C  -1.440008   0.217350  -0.002671
H  -2.812135  -1.306227  -0.866817
H  -2.613523  -1.201262   0.835601
C  -0.166546  -0.709602   0.061746
H  -1.409002   0.928981   0.901790
H  -1.386289   0.764662  -0.820156
H  -0.057123  -1.552653   1.076383
H   0.712637  -0.175832  -0.250532
H  -0.149362  -1.153405  -0.668408
