butane_opt
 OpenBabel08242015413D

 14 13  0  0  0  0  0  0  0  0999 V2000
   -3.9231    0.2358    0.0359 C   0  0  0  0  0  0  0  0  0  0  0  0
   -2.6929   -0.5967   -0.0058 C   0  0  0  0  0  0  0  0  0  0  0  0
   -4.8632   -0.3943    0.0552 H   0  0  0  0  0  0  0  0  0  0  0  0
   -3.9087    0.8490   -0.8431 H   0  0  0  0  0  0  0  0  0  0  0  0
   -3.8596    1.0107    0.9625 H   0  0  0  0  0  0  0  0  0  0  0  0
   -1.4400    0.2173   -0.0027 C   0  0  0  0  0  0  0  0  0  0  0  0
   -2.8121   -1.3062   -0.8668 H   0  0  0  0  0  0  0  0  0  0  0  0
   -2.6135   -1.2013    0.8356 H   0  0  0  0  0  0  0  0  0  0  0  0
   -0.1665   -0.7096    0.0617 C   0  0  0  0  0  0  0  0  0  0  0  0
   -1.4090    0.9290    0.9018 H   0  0  0  0  0  0  0  0  0  0  0  0
   -1.3863    0.7647   -0.8202 H   0  0  0  0  0  0  0  0  0  0  0  0
   -0.0571   -1.5527    1.0764 H   0  0  0  0  0  0  0  0  0  0  0  0
    0.7126   -0.1758   -0.2505 H   0  0  0  0  0  0  0  0  0  0  0  0
   -0.1494   -1.1534   -0.6684 H   0  0  0  0  0  0  0  0  0  0  0  0
  1  3  1  0  0  0  0
  1  5  1  0  0  0  0
  2  6  1  0  0  0  0
  2  1  1  0  0  0  0
  2  8  1  0  0  0  0
  4  1  1  0  0  0  0
  6  9  1  0  0  0  0
  6 10  1  0  0  0  0
  7  2  1  0  0  0  0
  9 12  1  0  0  0  0
 11  6  1  0  0  0  0
 13  9  1  0  0  0  0
 14  9  1  0  0  0  0
M  END
$$$$
