14
butane_opt
C  -3.960957   0.240984  -0.012584
C  -2.705461  -0.586027   0.083076
H  -4.893660  -0.365937  -0.172054
H  -3.944381   0.747476  -0.872329
H  -4.025519   1.030925   0.915081
C  -1.399702   0.196384   0.042074
H  -2.681602  -1.199838  -0.711574
H  -2.832889  -1.314393   1.039232
C  -0.122756  -0.707123  -0.008828
H  -1.424005   0.911989   0.905874
H  -1.448486   0.832258  -0.914521
H  -0.117905  -1.308611   0.881462
H   0.734502  -0.180749  -0.013087
H  -0.107402  -1.366364  -0.852628
