butane_opt
 OpenBabel08242015413D

 14 13  0  0  0  0  0  0  0  0999 V2000
   -3.9513    0.2772   -0.0045 C   0  0  0  0  0  0  0  0  0  0  0  0
   -2.7023   -0.6388    0.0616 C   0  0  0  0  0  0  0  0  0  0  0  0
   -4.8622   -0.3006    0.0361 H   0  0  0  0  0  0  0  0  0  0  0  0
   -4.0134    0.9630   -0.9617 H   0  0  0  0  0  0  0  0  0  0  0  0
   -4.0009    0.9051    0.8115 H   0  0  0  0  0  0  0  0  0  0  0  0
   -1.3871    0.1816    0.0318 C   0  0  0  0  0  0  0  0  0  0  0  0
   -2.6768   -1.2447   -0.7270 H   0  0  0  0  0  0  0  0  0  0  0  0
   -2.6990   -1.3583    1.0258 H   0  0  0  0  0  0  0  0  0  0  0  0
   -0.1657   -0.6876    0.0089 C   0  0  0  0  0  0  0  0  0  0  0  0
   -1.3218    0.9088    0.9091 H   0  0  0  0  0  0  0  0  0  0  0  0
   -1.3938    0.7969   -0.8363 H   0  0  0  0  0  0  0  0  0  0  0  0
   -0.1693   -1.1644    0.8197 H   0  0  0  0  0  0  0  0  0  0  0  0
    0.7469   -0.1161    0.0945 H   0  0  0  0  0  0  0  0  0  0  0  0
   -0.1481   -1.4562   -0.9244 H   0  0  0  0  0  0  0  0  0  0  0  0
  1  3  1  0  0  0  0
  1  2  1  0  0  0  0
  1  5  1  0  0  0  0
  2  8  1  0  0  0  0
  4  1  1  0  0  0  0
  6  2  1  0  0  0  0
  6 10  1  0  0  0  0
  7  2  1  0  0  0  0
  9  6  1  0  0  0  0
  9 13  1  0  0  0  0
  9 12  1  0  0  0  0
 11  6  1  0  0  0  0
 14  9  1  0  0  0  0
M  END
$$$$
