14
butane_opt
C  -3.967545   0.253274   0.056052
C  -2.706400  -0.598874  -0.017713
H  -4.927088  -0.395795   0.362232
H  -4.079539   0.944706  -0.905715
H  -3.840813   0.799145   0.829203
C  -1.388942   0.212233  -0.019236
H  -2.765877  -1.432572  -1.026372
H  -2.667693  -1.128772   0.816359
C  -0.135500  -0.704988   0.077377
H  -1.387567   0.876522   0.812455
H  -1.452724   0.867699  -0.940982
H  -0.158958  -1.386655   0.999137
H   0.720071  -0.183160   0.060809
H  -0.065292  -1.377071  -0.718568
