14
butane_opt
C  -3.931346   0.257741   0.040757
C  -2.704024  -0.585830  -0.003447
H  -4.899925  -0.343285   0.144045
H  -3.953992   0.792579  -0.776816
H  -3.878338   0.914963   0.892764
C  -1.419824   0.177092  -0.003260
H  -2.671027  -1.367452  -0.900959
H  -2.667020  -1.138976   0.789133
C  -0.171750  -0.695366   0.068551
H  -1.457779   0.824966   0.809586
H  -1.344973   0.785452  -0.911433
H  -0.021601  -1.482657   1.039533
H   0.753238  -0.074348  -0.151545
H  -0.171974  -1.218572  -0.700233
