butane_opt
 OpenBabel08242015413D

 14 13  0  0  0  0  0  0  0  0999 V2000
   -3.9675    0.2533    0.0561 C   0  0  0  0  0  0  0  0  0  0  0  0
   -2.7064   -0.5989   -0.0177 C   0  0  0  0  0  0  0  0  0  0  0  0
   -4.9271   -0.3958    0.3622 H   0  0  0  0  0  0  0  0  0  0  0  0
   -4.0795    0.9447   -0.9057 H   0  0  0  0  0  0  0  0  0  0  0  0
   -3.8408    0.7991    0.8292 H   0  0  0  0  0  0  0  0  0  0  0  0
   -1.3889    0.2122   -0.0192 C   0  0  0  0  0  0  0  0  0  0  0  0
   -2.7659   -1.4326   -1.0264 H   0  0  0  0  0  0  0  0  0  0  0  0
   -2.6677   -1.1288    0.8164 H   0  0  0  0  0  0  0  0  0  0  0  0
   -0.1355   -0.7050    0.0774 C   0  0  0  0  0  0  0  0  0  0  0  0
   -1.3876    0.8765    0.8125 H   0  0  0  0  0  0  0  0  0  0  0  0
   -1.4527    0.8677   -0.9410 H   0  0  0  0  0  0  0  0  0  0  0  0
   -0.1590   -1.3867    0.9991 H   0  0  0  0  0  0  0  0  0  0  0  0
    0.7201   -0.1832    0.0608 H   0  0  0  0  0  0  0  0  0  0  0  0
   -0.0653   -1.3771   -0.7186 H   0  0  0  0  0  0  0  0  0  0  0  0
  1  3  1  0  0  0  0
  1  5  1  0  0  0  0
  2  1  1  0  0  0  0
  2  8  1  0  0  0  0
  4  1  1  0  0  0  0
  6  2  1  0  0  0  0
  6  9  1  0  0  0  0
  6 10  1  0  0  0  0
  7  2  1  0  0  0  0
  9 12  1  0  0  0  0
 11  6  1  0  0  0  0
 13  9  1  0  0  0  0
 14  9  1  0  0  0  0
M  END
$$$$
