14
butane_opt
C  -3.950625   0.251022  -0.005095
C  -2.721625  -0.602609   0.049905
H  -4.884181  -0.397313   0.121987
H  -3.990908   0.975024  -0.972281
H  -3.917325   0.817413   0.814459
C  -1.404293   0.217110   0.053280
H  -2.659692  -1.343409  -0.813852
H  -2.839490  -1.164422   0.885463
C  -0.147300  -0.718784   0.011920
H  -1.322275   0.906893   0.951596
H  -1.364453   0.886530  -0.845432
H   0.062916  -1.413052   0.915795
H   0.735581  -0.134643  -0.093105
H  -0.155272  -1.366343  -0.839443
