butane_opt
 OpenBabel08242015413D

 14 13  0  0  0  0  0  0  0  0999 V2000
   -3.9504    0.2676    0.0627 C   0  0  0  0  0  0  0  0  0  0  0  0
   -2.6970   -0.6306   -0.0092 C   0  0  0  0  0  0  0  0  0  0  0  0
   -4.7984   -0.2724    0.1475 H   0  0  0  0  0  0  0  0  0  0  0  0
   -4.0366    0.9264   -0.8552 H   0  0  0  0  0  0  0  0  0  0  0  0
   -3.9328    0.9115    0.8878 H   0  0  0  0  0  0  0  0  0  0  0  0
   -1.3941    0.1759   -0.0394 C   0  0  0  0  0  0  0  0  0  0  0  0
   -2.7471   -1.3052   -0.8629 H   0  0  0  0  0  0  0  0  0  0  0  0
   -2.6835   -1.2051    0.8645 H   0  0  0  0  0  0  0  0  0  0  0  0
   -0.1641   -0.6867    0.0743 C   0  0  0  0  0  0  0  0  0  0  0  0
   -1.4467    0.8902    0.8355 H   0  0  0  0  0  0  0  0  0  0  0  0
   -1.3722    0.7804   -0.9141 H   0  0  0  0  0  0  0  0  0  0  0  0
   -0.2147   -1.2975    0.9726 H   0  0  0  0  0  0  0  0  0  0  0  0
    0.7378   -0.0759    0.0757 H   0  0  0  0  0  0  0  0  0  0  0  0
   -0.0710   -1.3342   -0.7799 H   0  0  0  0  0  0  0  0  0  0  0  0
  1  3  1  0  0  0  0
  1  5  1  0  0  0  0
  2  1  1  0  0  0  0
  2  8  1  0  0  0  0
  4  1  1  0  0  0  0
  6  2  1  0  0  0  0
  6  9  1  0  0  0  0
  6 10  1  0  0  0  0
  7  2  1  0  0  0  0
  9 13  1  0  0  0  0
  9 12  1  0  0  0  0
 11  6  1  0  0  0  0
 14  9  1  0  0  0  0
M  END
$$$$
