14
butane_opt
C  -3.954109   0.265601  -0.019653
C  -2.721141  -0.611775   0.060353
H  -4.963259  -0.410271  -0.034407
H  -3.946230   0.890491  -0.958062
H  -3.995145   0.894683   0.832241
C  -1.403856   0.206561   0.070077
H  -2.626696  -1.240525  -0.725086
H  -2.711288  -1.285531   1.035443
C  -0.134780  -0.699419  -0.010700
H  -1.411240   0.893036   0.946526
H  -1.377273   0.718450  -0.752030
H  -0.022458  -1.388915   0.918581
H   0.779229  -0.140987  -0.195018
H  -0.171592  -1.334135  -0.840102
