butane_opt
 OpenBabel08242015413D

 14 13  0  0  0  0  0  0  0  0999 V2000
   -3.9289    0.2546    0.0338 C   0  0  0  0  0  0  0  0  0  0  0  0
   -2.6957   -0.6181   -0.0137 C   0  0  0  0  0  0  0  0  0  0  0  0
   -4.8389   -0.3254    0.2947 H   0  0  0  0  0  0  0  0  0  0  0  0
   -4.0229    1.0133   -0.9169 H   0  0  0  0  0  0  0  0  0  0  0  0
   -3.8151    0.8921    0.9130 H   0  0  0  0  0  0  0  0  0  0  0  0
   -1.4171    0.1840    0.0056 C   0  0  0  0  0  0  0  0  0  0  0  0
   -2.7139   -1.2971   -0.8933 H   0  0  0  0  0  0  0  0  0  0  0  0
   -2.7158   -1.2673    0.8893 H   0  0  0  0  0  0  0  0  0  0  0  0
   -0.1649   -0.6899    0.0497 C   0  0  0  0  0  0  0  0  0  0  0  0
   -1.5398    0.9052    0.9061 H   0  0  0  0  0  0  0  0  0  0  0  0
   -1.3913    0.8112   -0.9053 H   0  0  0  0  0  0  0  0  0  0  0  0
   -0.1682   -1.3489    1.0097 H   0  0  0  0  0  0  0  0  0  0  0  0
    0.7621   -0.0993    0.0218 H   0  0  0  0  0  0  0  0  0  0  0  0
   -0.1114   -1.3117   -0.7906 H   0  0  0  0  0  0  0  0  0  0  0  0
  1  3  1  0  0  0  0
  1  5  1  0  0  0  0
  2  6  1  0  0  0  0
  2  1  1  0  0  0  0
  2  8  1  0  0  0  0
  4  1  1  0  0  0  0
  6  9  1  0  0  0  0
  6 10  1  0  0  0  0
  7  2  1  0  0  0  0
  9 12  1  0  0  0  0
 11  6  1  0  0  0  0
 13  9  1  0  0  0  0
 14  9  1  0  0  0  0
M  END
$$$$
