14
butane_opt
C  -3.973157   0.271414   0.041938
C  -2.695628  -0.633835  -0.018380
H  -4.828206  -0.294716   0.201944
H  -4.091282   0.906696  -0.806894
H  -3.934151   0.932391   0.916225
C  -1.388944   0.191073  -0.015597
H  -2.750459  -1.338810  -0.909860
H  -2.634270  -1.321293   0.894483
C  -0.144970  -0.681505   0.073688
H  -1.440107   0.884050   0.812806
H  -1.316798   0.802622  -0.868646
H  -0.113820  -1.361637   0.997411
H   0.728585  -0.150806  -0.016612
H  -0.202323  -1.290718  -0.757434
