butane_opt
 OpenBabel08242015413D

 14 13  0  0  0  0  0  0  0  0999 V2000
   -3.9668    0.2758   -0.0306 C   0  0  0  0  0  0  0  0  0  0  0  0
   -2.6963   -0.6488    0.0644 C   0  0  0  0  0  0  0  0  0  0  0  0
   -4.8124   -0.2775    0.3125 H   0  0  0  0  0  0  0  0  0  0  0  0
   -4.0854    1.2308   -1.1105 H   0  0  0  0  0  0  0  0  0  0  0  0
   -3.8856    0.7593    0.7002 H   0  0  0  0  0  0  0  0  0  0  0  0
   -1.3991    0.1660    0.0678 C   0  0  0  0  0  0  0  0  0  0  0  0
   -2.5961   -1.2879   -0.7392 H   0  0  0  0  0  0  0  0  0  0  0  0
   -2.7043   -1.3130    0.9378 H   0  0  0  0  0  0  0  0  0  0  0  0
   -0.1591   -0.6697   -0.0185 C   0  0  0  0  0  0  0  0  0  0  0  0
   -1.2776    0.9344    1.0038 H   0  0  0  0  0  0  0  0  0  0  0  0
   -1.4623    0.6552   -0.7118 H   0  0  0  0  0  0  0  0  0  0  0  0
   -0.1124   -1.1711    0.8398 H   0  0  0  0  0  0  0  0  0  0  0  0
    0.7248   -0.0616    0.1005 H   0  0  0  0  0  0  0  0  0  0  0  0
   -0.1691   -1.4021   -0.9131 H   0  0  0  0  0  0  0  0  0  0  0  0
  1  2  1  0  0  0  0
  1  3  1  0  0  0  0
  1  5  1  0  0  0  0
  2  6  1  0  0  0  0
  2  8  1  0  0  0  0
  4  1  1  0  0  0  0
  6 10  1  0  0  0  0
  7  2  1  0  0  0  0
  9  6  1  0  0  0  0
  9 13  1  0  0  0  0
  9 12  1  0  0  0  0
 11  6  1  0  0  0  0
 14  9  1  0  0  0  0
M  END
$$$$
