14
butane_opt
C  -3.920790   0.276404  -0.018254
C  -2.696717  -0.632208   0.083761
H  -4.824515  -0.285040   0.130208
H  -3.982370   0.990081  -0.969944
H  -3.997730   0.805163   0.786687
C  -1.416022   0.184967   0.029011
H  -2.721390  -1.314621  -0.787578
H  -2.589040  -1.311514   0.985414
C  -0.172472  -0.684943   0.010171
H  -1.387894   0.830816   0.885703
H  -1.423582   0.754656  -0.840294
H  -0.239131  -1.082344   0.786891
H   0.730991  -0.053502   0.138186
H  -0.117807  -1.529384  -0.972612
