butane_opt
 OpenBabel08242015413D

 14 13  0  0  0  0  0  0  0  0999 V2000
   -3.9140    0.2474   -0.0144 C   0  0  0  0  0  0  0  0  0  0  0  0
   -2.7149   -0.5876    0.0769 C   0  0  0  0  0  0  0  0  0  0  0  0
   -4.8400   -0.3602    0.0615 H   0  0  0  0  0  0  0  0  0  0  0  0
   -3.9260    0.9558   -1.0097 H   0  0  0  0  0  0  0  0  0  0  0  0
   -3.9065    0.8186    0.8124 H   0  0  0  0  0  0  0  0  0  0  0  0
   -1.4145    0.1979    0.0338 C   0  0  0  0  0  0  0  0  0  0  0  0
   -2.7402   -1.1812   -0.6820 H   0  0  0  0  0  0  0  0  0  0  0  0
   -2.6680   -1.3985    1.0628 H   0  0  0  0  0  0  0  0  0  0  0  0
   -0.1700   -0.7036   -0.0081 C   0  0  0  0  0  0  0  0  0  0  0  0
   -1.3853    0.9183    0.9113 H   0  0  0  0  0  0  0  0  0  0  0  0
   -1.3978    0.8097   -0.8723 H   0  0  0  0  0  0  0  0  0  0  0  0
   -0.1576   -1.0861    0.7714 H   0  0  0  0  0  0  0  0  0  0  0  0
    0.6514   -0.1973    0.2835 H   0  0  0  0  0  0  0  0  0  0  0  0
   -0.0822   -1.6082   -0.9956 H   0  0  0  0  0  0  0  0  0  0  0  0
  1  3  1  0  0  0  0
  1  2  1  0  0  0  0
  1  5  1  0  0  0  0
  2  8  1  0  0  0  0
  4  1  1  0  0  0  0
  6  2  1  0  0  0  0
  6 10  1  0  0  0  0
  7  2  1  0  0  0  0
  9  6  1  0  0  0  0
  9 13  1  0  0  0  0
  9 12  1  0  0  0  0
 11  6  1  0  0  0  0
 14  9  1  0  0  0  0
M  END
$$$$
