14
butane_opt
C  -3.914037   0.247371  -0.014427
C  -2.714929  -0.587646   0.076909
H  -4.839974  -0.360223   0.061505
H  -3.925996   0.955797  -1.009725
H  -3.906501   0.818622   0.812436
C  -1.414477   0.197904   0.033793
H  -2.740176  -1.181241  -0.681960
H  -2.667952  -1.398511   1.062756
C  -0.169989  -0.703591  -0.008074
H  -1.385286   0.918310   0.911346
H  -1.397849   0.809692  -0.872335
H  -0.157635  -1.086096   0.771413
H   0.651440  -0.197288   0.283480
H  -0.082247  -1.608168  -0.995607
