14
butane_opt
C  -3.930154   0.257186  -0.012316
C  -2.679975  -0.622043   0.057883
H  -4.829236  -0.288690   0.277346
H  -3.967584   1.098568  -1.039509
H  -3.883610   0.723866   0.685509
C  -1.416028   0.197098   0.037244
H  -2.762363  -1.229955  -0.762659
H  -2.722038  -1.276232   0.978002
C  -0.172436  -0.696740   0.002951
H  -1.449638   0.985313   1.001663
H  -1.435017   0.678044  -0.749034
H  -0.211067  -1.233362   0.845714
H   0.782111  -0.070594   0.114643
H  -0.171199  -1.477835  -0.976790
