14
butane_opt
C  -3.950235   0.256813   0.062578
C  -2.728803  -0.604903  -0.019594
H  -4.961213  -0.393092  -0.013715
H  -3.931454   0.783280  -0.774024
H  -3.913260   1.024675   1.037925
C  -1.403075   0.204515  -0.022261
H  -2.786121  -1.324287  -0.907973
H  -2.626840  -1.209170   0.813393
C  -0.145704  -0.715342   0.077565
H  -1.418114   0.850717   0.788088
H  -1.328732   0.953939  -0.988276
H   0.030343  -1.492315   1.079046
H   0.773711  -0.103258  -0.068919
H  -0.129016  -1.263777  -0.681436
