14
butane_opt
C  -3.950367   0.255496  -0.014233
C  -2.702499  -0.614593   0.067986
H  -4.870257  -0.333147   0.035372
H  -3.967169   0.934726  -0.956665
H  -3.929424   0.879678   0.790249
C  -1.409468   0.206525   0.049705
H  -2.697344  -1.302883  -0.796361
H  -2.732403  -1.266188   0.967190
C  -0.151823  -0.697197  -0.004305
H  -1.353067   0.940301   0.967803
H  -1.419686   0.735961  -0.764514
H  -0.060936  -1.388481   0.935275
H   0.717806  -0.155706  -0.093460
H  -0.140419  -1.316700  -0.838765
