butane_opt
 OpenBabel08242015413D

 14 13  0  0  0  0  0  0  0  0999 V2000
   -3.9502    0.2568    0.0626 C   0  0  0  0  0  0  0  0  0  0  0  0
   -2.7288   -0.6049   -0.0196 C   0  0  0  0  0  0  0  0  0  0  0  0
   -4.9612   -0.3931   -0.0137 H   0  0  0  0  0  0  0  0  0  0  0  0
   -3.9315    0.7833   -0.7740 H   0  0  0  0  0  0  0  0  0  0  0  0
   -3.9133    1.0247    1.0379 H   0  0  0  0  0  0  0  0  0  0  0  0
   -1.4031    0.2045   -0.0223 C   0  0  0  0  0  0  0  0  0  0  0  0
   -2.7861   -1.3243   -0.9080 H   0  0  0  0  0  0  0  0  0  0  0  0
   -2.6268   -1.2092    0.8134 H   0  0  0  0  0  0  0  0  0  0  0  0
   -0.1457   -0.7153    0.0776 C   0  0  0  0  0  0  0  0  0  0  0  0
   -1.4181    0.8507    0.7881 H   0  0  0  0  0  0  0  0  0  0  0  0
   -1.3287    0.9539   -0.9883 H   0  0  0  0  0  0  0  0  0  0  0  0
    0.0303   -1.4923    1.0790 H   0  0  0  0  0  0  0  0  0  0  0  0
    0.7737   -0.1033   -0.0689 H   0  0  0  0  0  0  0  0  0  0  0  0
   -0.1290   -1.2638   -0.6814 H   0  0  0  0  0  0  0  0  0  0  0  0
  1  5  1  0  0  0  0
  2  1  1  0  0  0  0
  2  8  1  0  0  0  0
  3  1  1  0  0  0  0
  4  1  1  0  0  0  0
  6  2  1  0  0  0  0
  6  9  1  0  0  0  0
  6 10  1  0  0  0  0
  7  2  1  0  0  0  0
  9 12  1  0  0  0  0
 11  6  1  0  0  0  0
 13  9  1  0  0  0  0
 14  9  1  0  0  0  0
M  END
$$$$
