14
butane_opt
C  -3.952673   0.271058   0.064129
C  -2.707771  -0.628913  -0.038804
H  -4.791529  -0.281220   0.047354
H  -4.077301   0.891227  -0.779455
H  -3.910248   1.032240   0.988606
C  -1.403422   0.166553  -0.010304
H  -2.790833  -1.373195  -0.922359
H  -2.715351  -1.208627   0.860256
C  -0.153074  -0.684536   0.074460
H  -1.456089   0.848026   0.855041
H  -1.254629   0.827540  -0.962026
H  -0.064817  -1.483914   1.077839
H   0.794686  -0.084478  -0.179254
H  -0.167690  -1.106934  -0.609554
