14
butane_opt
C  -3.968621   0.280680  -0.025760
C  -2.699720  -0.631595   0.111073
H  -4.846094  -0.274385  -0.160204
H  -3.887150   0.831635  -0.896102
H  -4.103045   1.043857   0.839867
C  -1.393168   0.156053   0.034681
H  -2.621697  -1.280713  -0.685971
H  -2.682151  -1.355842   1.087368
C  -0.161699  -0.663632  -0.020196
H  -1.338575   0.868252   0.925695
H  -1.400309   0.698094  -0.814362
H  -0.198460  -1.209050   0.829883
H   0.760591  -0.098058   0.029878
H  -0.042372  -1.384361  -0.921730
