butane_opt
 OpenBabel08242015413D

 14 13  0  0  0  0  0  0  0  0999 V2000
   -3.9199    0.2396   -0.0293 C   0  0  0  0  0  0  0  0  0  0  0  0
   -2.7012   -0.5800    0.1143 C   0  0  0  0  0  0  0  0  0  0  0  0
   -4.9143   -0.4236   -0.2046 H   0  0  0  0  0  0  0  0  0  0  0  0
   -3.7595    0.8196   -0.9260 H   0  0  0  0  0  0  0  0  0  0  0  0
   -4.0727    1.0038    0.9088 H   0  0  0  0  0  0  0  0  0  0  0  0
   -1.4067    0.2012    0.0489 C   0  0  0  0  0  0  0  0  0  0  0  0
   -2.6559   -1.2486   -0.7194 H   0  0  0  0  0  0  0  0  0  0  0  0
   -2.7452   -1.1774    0.9896 H   0  0  0  0  0  0  0  0  0  0  0  0
   -0.1823   -0.7192   -0.0197 C   0  0  0  0  0  0  0  0  0  0  0  0
   -1.2770    0.8061    0.9150 H   0  0  0  0  0  0  0  0  0  0  0  0
   -1.5378    0.8410   -0.8219 H   0  0  0  0  0  0  0  0  0  0  0  0
   -0.0473   -1.3258    0.8508 H   0  0  0  0  0  0  0  0  0  0  0  0
    0.6914   -0.1082   -0.0197 H   0  0  0  0  0  0  0  0  0  0  0  0
   -0.1669   -1.3727   -0.8815 H   0  0  0  0  0  0  0  0  0  0  0  0
  1  2  1  0  0  0  0
  1  5  1  0  0  0  0
  2  8  1  0  0  0  0
  3  1  1  0  0  0  0
  4  1  1  0  0  0  0
  6  2  1  0  0  0  0
  6 10  1  0  0  0  0
  7  2  1  0  0  0  0
  9 13  1  0  0  0  0
  9  6  1  0  0  0  0
  9 12  1  0  0  0  0
 11  6  1  0  0  0  0
 14  9  1  0  0  0  0
M  END
$$$$
