14
butane_opt
C  -3.966669   0.284056   0.053960
C  -2.703511  -0.628012   0.015520
H  -4.907135  -0.319590   0.004014
H  -4.023553   0.766554  -0.747842
H  -3.944024   1.070288   1.008462
C  -1.386999   0.165087  -0.065273
H  -2.830571  -1.303680  -0.887715
H  -2.663784  -1.241293   0.917873
C  -0.163370  -0.676571   0.076834
H  -1.332029   0.816583   0.792606
H  -1.328186   0.813311  -0.948126
H  -0.249706  -1.345358   0.993553
H   0.787393  -0.080196   0.142536
H   0.098340  -1.384202  -0.807825
