14
butane_opt
C  -3.955470   0.253350  -0.005306
C  -2.695404  -0.603589   0.094270
H  -4.851566  -0.365507  -0.197930
H  -3.782203   0.702452  -0.803436
H  -4.098476   1.049267   0.918496
C  -1.411624   0.196382   0.012187
H  -2.716576  -1.279272  -0.739328
H  -2.809342  -1.180729   0.978505
C  -0.142975  -0.716119   0.013618
H  -1.373282   0.884166   0.830193
H  -1.484167   0.896678  -0.889641
H  -0.098186  -1.297610   0.843037
H   0.815427  -0.098190  -0.014935
H  -0.156717  -1.351555  -0.834980
