14
butane_opt
C  -3.927374   0.286840  -0.047818
C  -2.697547  -0.639228   0.137611
H  -4.809041  -0.296049  -0.182157
H  -3.853933   0.798728  -0.911390
H  -4.203891   1.032504   0.850637
C  -1.404540   0.161206   0.055944
H  -2.704556  -1.282183  -0.663955
H  -2.763463  -1.250514   0.995095
C  -0.166823  -0.673441  -0.032620
H  -1.296315   0.792854   0.936097
H  -1.480518   0.811283  -0.820323
H  -0.141728  -1.220487   0.838980
H   0.768501  -0.055093  -0.010615
H  -0.194352  -1.422060  -0.941720
