butane_opt
 OpenBabel08242015413D

 14 13  0  0  0  0  0  0  0  0999 V2000
   -3.9548    0.2502   -0.0047 C   0  0  0  0  0  0  0  0  0  0  0  0
   -2.7066   -0.6106    0.0784 C   0  0  0  0  0  0  0  0  0  0  0  0
   -4.8799   -0.3490    0.1006 H   0  0  0  0  0  0  0  0  0  0  0  0
   -3.9601    0.9404   -0.9795 H   0  0  0  0  0  0  0  0  0  0  0  0
   -3.9017    0.8433    0.8318 H   0  0  0  0  0  0  0  0  0  0  0  0
   -1.4128    0.2298    0.0214 C   0  0  0  0  0  0  0  0  0  0  0  0
   -2.7701   -1.3388   -0.8114 H   0  0  0  0  0  0  0  0  0  0  0  0
   -2.7934   -1.2708    0.9972 H   0  0  0  0  0  0  0  0  0  0  0  0
   -0.1355   -0.7101    0.0140 C   0  0  0  0  0  0  0  0  0  0  0  0
   -1.4530    0.8560    0.8290 H   0  0  0  0  0  0  0  0  0  0  0  0
   -1.3648    0.8439   -0.9163 H   0  0  0  0  0  0  0  0  0  0  0  0
   -0.0404   -1.1617    0.8227 H   0  0  0  0  0  0  0  0  0  0  0  0
    0.6978   -0.1499    0.1984 H   0  0  0  0  0  0  0  0  0  0  0  0
   -0.0455   -1.5948   -0.9673 H   0  0  0  0  0  0  0  0  0  0  0  0
  1  2  1  0  0  0  0
  1  3  1  0  0  0  0
  1  5  1  0  0  0  0
  2  8  1  0  0  0  0
  4  1  1  0  0  0  0
  6  2  1  0  0  0  0
  6 10  1  0  0  0  0
  7  2  1  0  0  0  0
  9  6  1  0  0  0  0
  9 13  1  0  0  0  0
  9 12  1  0  0  0  0
 11  6  1  0  0  0  0
 14  9  1  0  0  0  0
M  END
$$$$
