14
butane_opt
C  -3.930704   0.259100   0.061120
C  -2.717655  -0.588540  -0.012605
H  -4.886513  -0.384719   0.046818
H  -3.892266   0.762247  -0.827838
H  -3.900065   0.987148   0.963976
C  -1.414950   0.192656  -0.009192
H  -2.733225  -1.411773  -0.961105
H  -2.653029  -1.149768   0.809689
C  -0.162701  -0.706533   0.065412
H  -1.322863   0.838225   0.789687
H  -1.425426   0.880707  -0.952666
H  -0.102507  -1.568340   1.151364
H   0.768044  -0.092071  -0.108643
H  -0.165176  -1.210824  -0.684169
