14
butane_opt
C  -3.969918   0.273152   0.043224
C  -2.696689  -0.641813   0.022855
H  -4.826073  -0.256266  -0.167515
H  -3.896777   0.689889  -0.747858
H  -4.122574   1.145103   1.029485
C  -1.391057   0.178872  -0.034616
H  -2.747613  -1.304700  -0.835153
H  -2.606530  -1.286574   0.964250
C  -0.162278  -0.665138   0.063049
H  -1.368246   0.889145   0.837792
H  -1.385054   0.789152  -0.918597
H  -0.112362  -1.478816   1.060132
H   0.761519  -0.116905  -0.099957
H  -0.094416  -1.279103  -0.789238
