butane_opt
 OpenBabel08242015413D

 14 13  0  0  0  0  0  0  0  0999 V2000
   -3.9307    0.2591    0.0611 C   0  0  0  0  0  0  0  0  0  0  0  0
   -2.7177   -0.5885   -0.0126 C   0  0  0  0  0  0  0  0  0  0  0  0
   -4.8865   -0.3847    0.0468 H   0  0  0  0  0  0  0  0  0  0  0  0
   -3.8923    0.7622   -0.8278 H   0  0  0  0  0  0  0  0  0  0  0  0
   -3.9001    0.9871    0.9640 H   0  0  0  0  0  0  0  0  0  0  0  0
   -1.4149    0.1927   -0.0092 C   0  0  0  0  0  0  0  0  0  0  0  0
   -2.7332   -1.4118   -0.9611 H   0  0  0  0  0  0  0  0  0  0  0  0
   -2.6530   -1.1498    0.8097 H   0  0  0  0  0  0  0  0  0  0  0  0
   -0.1627   -0.7065    0.0654 C   0  0  0  0  0  0  0  0  0  0  0  0
   -1.3229    0.8382    0.7897 H   0  0  0  0  0  0  0  0  0  0  0  0
   -1.4254    0.8807   -0.9527 H   0  0  0  0  0  0  0  0  0  0  0  0
   -0.1025   -1.5683    1.1514 H   0  0  0  0  0  0  0  0  0  0  0  0
    0.7680   -0.0921   -0.1086 H   0  0  0  0  0  0  0  0  0  0  0  0
   -0.1652   -1.2108   -0.6842 H   0  0  0  0  0  0  0  0  0  0  0  0
  1  5  1  0  0  0  0
  2  6  1  0  0  0  0
  2  1  1  0  0  0  0
  2  8  1  0  0  0  0
  3  1  1  0  0  0  0
  4  1  1  0  0  0  0
  6  9  1  0  0  0  0
  6 10  1  0  0  0  0
  7  2  1  0  0  0  0
  9 12  1  0  0  0  0
 11  6  1  0  0  0  0
 13  9  1  0  0  0  0
 14  9  1  0  0  0  0
M  END
$$$$
