14
butane_opt
C  -3.920414   0.286819  -0.010183
C  -2.688020  -0.651891   0.077110
H  -4.804148  -0.286322  -0.094118
H  -3.912184   0.816310  -0.853965
H  -4.052498   0.993222   0.859805
C  -1.411381   0.169155   0.029563
H  -2.664095  -1.230236  -0.679274
H  -2.697699  -1.323890   0.972031
C  -0.186338  -0.677985  -0.004897
H  -1.432021   0.888854   0.920481
H  -1.440838   0.798468  -0.826462
H  -0.170171  -1.265826   0.873153
H   0.785466  -0.077743   0.053253
H  -0.177094  -1.292735  -0.877390
