butane_opt
 OpenBabel08242015413D

 14 13  0  0  0  0  0  0  0  0999 V2000
   -3.9392    0.2765   -0.0026 C   0  0  0  0  0  0  0  0  0  0  0  0
   -2.6897   -0.6302    0.0543 C   0  0  0  0  0  0  0  0  0  0  0  0
   -4.8569   -0.3253   -0.0269 H   0  0  0  0  0  0  0  0  0  0  0  0
   -3.9670    0.8856   -0.8971 H   0  0  0  0  0  0  0  0  0  0  0  0
   -3.9889    0.9352    0.8390 H   0  0  0  0  0  0  0  0  0  0  0  0
   -1.4049    0.1791    0.0337 C   0  0  0  0  0  0  0  0  0  0  0  0
   -2.6555   -1.2757   -0.7301 H   0  0  0  0  0  0  0  0  0  0  0  0
   -2.7237   -1.2702    0.9519 H   0  0  0  0  0  0  0  0  0  0  0  0
   -0.1748   -0.6886    0.0149 C   0  0  0  0  0  0  0  0  0  0  0  0
   -1.3564    0.9163    0.9368 H   0  0  0  0  0  0  0  0  0  0  0  0
   -1.3550    0.7484   -0.8172 H   0  0  0  0  0  0  0  0  0  0  0  0
   -0.0884   -1.3252    0.9101 H   0  0  0  0  0  0  0  0  0  0  0  0
    0.7376   -0.0883   -0.1213 H   0  0  0  0  0  0  0  0  0  0  0  0
   -0.2648   -1.3119   -0.8104 H   0  0  0  0  0  0  0  0  0  0  0  0
  1  2  1  0  0  0  0
  1  5  1  0  0  0  0
  2  8  1  0  0  0  0
  3  1  1  0  0  0  0
  4  1  1  0  0  0  0
  6  2  1  0  0  0  0
  6 10  1  0  0  0  0
  7  2  1  0  0  0  0
  9  6  1  0  0  0  0
  9 12  1  0  0  0  0
 11  6  1  0  0  0  0
 13  9  1  0  0  0  0
 14  9  1  0  0  0  0
M  END
$$$$
