14
butane_opt
C  -3.954836   0.250195  -0.004670
C  -2.706627  -0.610596   0.078355
H  -4.879868  -0.349013   0.100635
H  -3.960147   0.940411  -0.979491
H  -3.901740   0.843280   0.831788
C  -1.412817   0.229777   0.021379
H  -2.770134  -1.338790  -0.811364
H  -2.793389  -1.270844   0.997191
C  -0.135523  -0.710122   0.014028
H  -1.452978   0.855982   0.828991
H  -1.364805   0.843935  -0.916288
H  -0.040409  -1.161732   0.822742
H   0.697836  -0.149880   0.198404
H  -0.045477  -1.594767  -0.967333
