14
butane_opt
C  -3.929080   0.286189   0.013897
C  -2.686701  -0.630455   0.063762
H  -4.888078  -0.326987   0.117011
H  -3.989672   1.006180  -0.962556
H  -4.001686   0.857160   0.777750
C  -1.400156   0.162288   0.002724
H  -2.753599  -1.317629  -0.860337
H  -2.721226  -1.307346   0.982652
C  -0.181004  -0.670307   0.032673
H  -1.311533   0.837707   0.856732
H  -1.380579   0.780940  -0.884224
H  -0.218578  -1.122542   0.811375
H   0.693768  -0.076404   0.169077
H  -0.088998  -1.581162  -0.952075
