14
butane_opt
C  -3.977476   0.281287   0.063993
C  -2.688808  -0.631609   0.006032
H  -4.856178  -0.306379  -0.033399
H  -4.004570   0.855425  -0.816953
H  -4.029336   1.026860   0.995612
C  -1.392933   0.150706  -0.049090
H  -2.750251  -1.325661  -0.874753
H  -2.702173  -1.297019   0.889962
C  -0.133227  -0.670624   0.073679
H  -1.433973   0.911470   0.823821
H  -1.332532   0.779958  -0.933193
H  -0.207817  -1.330132   0.963759
H   0.739007  -0.082207   0.041881
H  -0.134374  -1.258454  -0.742827
