butane_opt
 OpenBabel08242015413D

 14 13  0  0  0  0  0  0  0  0999 V2000
   -3.9354    0.2537    0.0001 C   0  0  0  0  0  0  0  0  0  0  0  0
   -2.6936   -0.6046    0.0587 C   0  0  0  0  0  0  0  0  0  0  0  0
   -4.7829   -0.2945    0.1114 H   0  0  0  0  0  0  0  0  0  0  0  0
   -3.9365    0.9815   -0.9176 H   0  0  0  0  0  0  0  0  0  0  0  0
   -3.9226    0.8609    0.8188 H   0  0  0  0  0  0  0  0  0  0  0  0
   -1.4093    0.1827    0.0084 C   0  0  0  0  0  0  0  0  0  0  0  0
   -2.5862   -1.2510   -0.7259 H   0  0  0  0  0  0  0  0  0  0  0  0
   -2.7340   -1.3748    1.0833 H   0  0  0  0  0  0  0  0  0  0  0  0
   -0.1823   -0.6890    0.0099 C   0  0  0  0  0  0  0  0  0  0  0  0
   -1.3953    0.8848    0.9197 H   0  0  0  0  0  0  0  0  0  0  0  0
   -1.4204    0.7854   -0.8777 H   0  0  0  0  0  0  0  0  0  0  0  0
   -0.2783   -1.1051    0.7689 H   0  0  0  0  0  0  0  0  0  0  0  0
    0.7476   -0.1162    0.2687 H   0  0  0  0  0  0  0  0  0  0  0  0
   -0.0717   -1.5471   -0.9607 H   0  0  0  0  0  0  0  0  0  0  0  0
  1  2  1  0  0  0  0
  1  3  1  0  0  0  0
  1  5  1  0  0  0  0
  2  8  1  0  0  0  0
  4  1  1  0  0  0  0
  6  9  1  0  0  0  0
  6  2  1  0  0  0  0
  6 10  1  0  0  0  0
  7  2  1  0  0  0  0
  9 13  1  0  0  0  0
  9 12  1  0  0  0  0
 11  6  1  0  0  0  0
 14  9  1  0  0  0  0
M  END
$$$$
