butane_opt
 OpenBabel08242015413D

 14 13  0  0  0  0  0  0  0  0999 V2000
   -3.9217    0.2458    0.0692 C   0  0  0  0  0  0  0  0  0  0  0  0
   -2.7155   -0.5970   -0.0142 C   0  0  0  0  0  0  0  0  0  0  0  0
   -4.8253   -0.3409    0.1855 H   0  0  0  0  0  0  0  0  0  0  0  0
   -4.0078    0.8261   -0.7923 H   0  0  0  0  0  0  0  0  0  0  0  0
   -3.9185    1.0162    0.9328 H   0  0  0  0  0  0  0  0  0  0  0  0
   -1.4102    0.2094   -0.0633 C   0  0  0  0  0  0  0  0  0  0  0  0
   -2.8645   -1.3006   -0.8562 H   0  0  0  0  0  0  0  0  0  0  0  0
   -2.7505   -1.2735    0.9211 H   0  0  0  0  0  0  0  0  0  0  0  0
   -0.1545   -0.7082    0.0748 C   0  0  0  0  0  0  0  0  0  0  0  0
   -1.4163    0.8433    0.7526 H   0  0  0  0  0  0  0  0  0  0  0  0
   -1.4055    0.8553   -0.9708 H   0  0  0  0  0  0  0  0  0  0  0  0
   -0.2772   -1.2948    0.9783 H   0  0  0  0  0  0  0  0  0  0  0  0
    0.7473   -0.1432    0.3078 H   0  0  0  0  0  0  0  0  0  0  0  0
    0.1149   -1.4595   -0.8120 H   0  0  0  0  0  0  0  0  0  0  0  0
  1  3  1  0  0  0  0
  1  5  1  0  0  0  0
  2  1  1  0  0  0  0
  2  8  1  0  0  0  0
  4  1  1  0  0  0  0
  6  2  1  0  0  0  0
  6  9  1  0  0  0  0
  6 10  1  0  0  0  0
  7  2  1  0  0  0  0
  9 13  1  0  0  0  0
  9 12  1  0  0  0  0
 11  6  1  0  0  0  0
 14  9  1  0  0  0  0
M  END
$$$$
