butane_opt
 OpenBabel08242015413D

 14 13  0  0  0  0  0  0  0  0999 V2000
   -3.9343    0.2392   -0.0080 C   0  0  0  0  0  0  0  0  0  0  0  0
   -2.7016   -0.5918    0.0619 C   0  0  0  0  0  0  0  0  0  0  0  0
   -4.7935   -0.3538    0.2326 H   0  0  0  0  0  0  0  0  0  0  0  0
   -4.0932    0.9917   -0.9857 H   0  0  0  0  0  0  0  0  0  0  0  0
   -3.9413    0.7528    0.7121 H   0  0  0  0  0  0  0  0  0  0  0  0
   -1.4245    0.2088    0.0470 C   0  0  0  0  0  0  0  0  0  0  0  0
   -2.6480   -1.3071   -0.8325 H   0  0  0  0  0  0  0  0  0  0  0  0
   -2.8326   -1.2309    0.9320 H   0  0  0  0  0  0  0  0  0  0  0  0
   -0.1461   -0.7127    0.0110 C   0  0  0  0  0  0  0  0  0  0  0  0
   -1.3491    0.9110    0.8906 H   0  0  0  0  0  0  0  0  0  0  0  0
   -1.4096    0.8986   -0.8551 H   0  0  0  0  0  0  0  0  0  0  0  0
   -0.0749   -1.2182    0.8314 H   0  0  0  0  0  0  0  0  0  0  0  0
    0.7429   -0.1308    0.1011 H   0  0  0  0  0  0  0  0  0  0  0  0
   -0.1307   -1.5150   -0.9385 H   0  0  0  0  0  0  0  0  0  0  0  0
  1  2  1  0  0  0  0
  1  3  1  0  0  0  0
  1  5  1  0  0  0  0
  2  8  1  0  0  0  0
  4  1  1  0  0  0  0
  6  2  1  0  0  0  0
  6 10  1  0  0  0  0
  7  2  1  0  0  0  0
  9  6  1  0  0  0  0
  9 13  1  0  0  0  0
  9 12  1  0  0  0  0
 11  6  1  0  0  0  0
 14  9  1  0  0  0  0
M  END
$$$$
