14
butane_opt
C  -3.955964   0.272487   0.048769
C  -2.705804  -0.628123   0.002982
H  -4.842033  -0.282302  -0.022285
H  -3.928368   0.828316  -0.796724
H  -3.970749   0.999187   0.920428
C  -1.394702   0.185275  -0.011532
H  -2.709452  -1.352204  -0.860491
H  -2.683116  -1.253389   0.886830
C  -0.163190  -0.689397   0.053038
H  -1.389226   0.877199   0.863075
H  -1.344635   0.800001  -0.878819
H  -0.140418  -1.436843   1.054638
H   0.748404  -0.096170  -0.130324
H  -0.138130  -1.230679  -0.704104
