14
butane_opt
C  -3.921684   0.245820   0.069225
C  -2.715520  -0.597021  -0.014178
H  -4.825273  -0.340889   0.185514
H  -4.007834   0.826062  -0.792313
H  -3.918464   1.016155   0.932786
C  -1.410217   0.209373  -0.063300
H  -2.864470  -1.300646  -0.856178
H  -2.750532  -1.273480   0.921062
C  -0.154466  -0.708244   0.074808
H  -1.416265   0.843253   0.752557
H  -1.405488   0.855315  -0.970817
H  -0.277176  -1.294821   0.978300
H   0.747296  -0.143186   0.307763
H   0.114879  -1.459472  -0.812009
