14
butane_opt
C  -3.946980   0.281267  -0.010767
C  -2.698629  -0.649108   0.092270
H  -4.811561  -0.244120  -0.117541
H  -3.875428   0.897381  -0.870701
H  -4.174492   1.027096   0.845180
C  -1.397517   0.163977   0.028934
H  -2.789740  -1.327140  -0.750828
H  -2.747744  -1.253523   0.944754
C  -0.166248  -0.675099   0.011873
H  -1.280071   0.884168   0.902625
H  -1.408189   0.808406  -0.896566
H  -0.052393  -1.278229   0.873171
H   0.783082  -0.044671  -0.042596
H  -0.176963  -1.387646  -0.905874
