14
butane_opt
C  -3.907754   0.256711  -0.034712
C  -2.703817  -0.593231   0.057146
H  -4.864996  -0.377511   0.148390
H  -3.928324   0.881529  -0.964741
H  -3.918901   0.762679   0.737418
C  -1.421862   0.198153   0.081589
H  -2.741567  -1.200444  -0.770488
H  -2.708431  -1.326500   1.011091
C  -0.171566  -0.702772  -0.012059
H  -1.428428   1.006323   1.003870
H  -1.465719   0.767510  -0.737634
H   0.023040  -1.386537   0.911832
H   0.685351  -0.140025  -0.152381
H  -0.216355  -1.371215  -0.858145
