butane_opt
 OpenBabel08242015413D

 14 13  0  0  0  0  0  0  0  0999 V2000
   -3.9644    0.2871    0.0005 C   0  0  0  0  0  0  0  0  0  0  0  0
   -2.6975   -0.6482    0.0682 C   0  0  0  0  0  0  0  0  0  0  0  0
   -4.9265   -0.3193   -0.0158 H   0  0  0  0  0  0  0  0  0  0  0  0
   -3.9999    0.8985   -0.8956 H   0  0  0  0  0  0  0  0  0  0  0  0
   -3.9751    1.0181    0.9255 H   0  0  0  0  0  0  0  0  0  0  0  0
   -1.3909    0.1692    0.0213 C   0  0  0  0  0  0  0  0  0  0  0  0
   -2.6527   -1.2953   -0.7457 H   0  0  0  0  0  0  0  0  0  0  0  0
   -2.7341   -1.2586    0.9504 H   0  0  0  0  0  0  0  0  0  0  0  0
   -0.1571   -0.6794    0.0187 C   0  0  0  0  0  0  0  0  0  0  0  0
   -1.4167    0.7261    0.8311 H   0  0  0  0  0  0  0  0  0  0  0  0
   -1.3545    0.8598   -0.9323 H   0  0  0  0  0  0  0  0  0  0  0  0
   -0.2026   -1.1738    0.8177 H   0  0  0  0  0  0  0  0  0  0  0  0
    0.7919   -0.0404    0.1061 H   0  0  0  0  0  0  0  0  0  0  0  0
   -0.0469   -1.4251   -0.9203 H   0  0  0  0  0  0  0  0  0  0  0  0
  1  2  1  0  0  0  0
  1  5  1  0  0  0  0
  2  8  1  0  0  0  0
  3  1  1  0  0  0  0
  4  1  1  0  0  0  0
  6  2  1  0  0  0  0
  6 10  1  0  0  0  0
  7  2  1  0  0  0  0
  9  6  1  0  0  0  0
  9 13  1  0  0  0  0
  9 12  1  0  0  0  0
 11  6  1  0  0  0  0
 14  9  1  0  0  0  0
M  END
$$$$
