14
butane_opt
C  -3.962853   0.275228   0.044621
C  -2.708147  -0.629793   0.033614
H  -4.846853  -0.300041   0.045985
H  -3.975747   0.877488  -0.834106
H  -4.051711   0.997713   0.965155
C  -1.379015   0.179076  -0.043870
H  -2.756373  -1.381130  -0.822463
H  -2.616259  -1.201393   0.873316
C  -0.172846  -0.690735   0.063414
H  -1.393334   0.794423   0.757342
H  -1.256852   0.833544  -0.973809
H  -0.181305  -1.192684   0.863796
H   0.735138  -0.084685   0.184935
H  -0.007368  -1.413551  -0.804071
