butane_opt
 OpenBabel08242015413D

 14 13  0  0  0  0  0  0  0  0999 V2000
   -3.9507    0.2506    0.0828 C   0  0  0  0  0  0  0  0  0  0  0  0
   -2.7138   -0.5984   -0.0537 C   0  0  0  0  0  0  0  0  0  0  0  0
   -4.8980   -0.3414    0.2952 H   0  0  0  0  0  0  0  0  0  0  0  0
   -4.0907    0.9399   -0.8100 H   0  0  0  0  0  0  0  0  0  0  0  0
   -3.8359    0.7744    0.8791 H   0  0  0  0  0  0  0  0  0  0  0  0
   -1.4026    0.2123   -0.0429 C   0  0  0  0  0  0  0  0  0  0  0  0
   -2.8172   -1.3464   -0.9738 H   0  0  0  0  0  0  0  0  0  0  0  0
   -2.6721   -1.1447    0.8273 H   0  0  0  0  0  0  0  0  0  0  0  0
   -0.1521   -0.7168    0.0916 C   0  0  0  0  0  0  0  0  0  0  0  0
   -1.4414    0.9395    0.8162 H   0  0  0  0  0  0  0  0  0  0  0  0
   -1.2271    0.8210   -0.9499 H   0  0  0  0  0  0  0  0  0  0  0  0
   -0.1539   -1.4236    1.0807 H   0  0  0  0  0  0  0  0  0  0  0  0
    0.7349   -0.1585    0.0394 H   0  0  0  0  0  0  0  0  0  0  0  0
    0.0177   -1.3168   -0.7140 H   0  0  0  0  0  0  0  0  0  0  0  0
  1  3  1  0  0  0  0
  1  5  1  0  0  0  0
  2  6  1  0  0  0  0
  2  1  1  0  0  0  0
  2  8  1  0  0  0  0
  4  1  1  0  0  0  0
  6  9  1  0  0  0  0
  6 10  1  0  0  0  0
  7  2  1  0  0  0  0
  9 12  1  0  0  0  0
 11  6  1  0  0  0  0
 13  9  1  0  0  0  0
 14  9  1  0  0  0  0
M  END
$$$$
