14
butane_opt
C  -3.961533   0.251289   0.000298
C  -2.710125  -0.619119   0.091572
H  -4.859197  -0.316277  -0.044183
H  -3.929731   0.904157  -0.881063
H  -3.938413   0.940666   0.873327
C  -1.399615   0.218166  -0.005622
H  -2.759040  -1.325719  -0.786764
H  -2.751699  -1.229243   0.981609
C  -0.143321  -0.714483   0.011850
H  -1.342291   0.882302   0.893108
H  -1.357342   0.867271  -0.927782
H  -0.198489  -1.177176   0.818562
H   0.709563  -0.184533   0.224628
H  -0.014993  -1.474811  -0.908005
