14
butane_opt
C  -3.953630   0.274013   0.030009
C  -2.689870  -0.637286   0.010383
H  -4.822616  -0.274655   0.155972
H  -4.062386   0.936478  -0.866557
H  -3.934726   0.917169   0.891640
C  -1.394187   0.177241   0.000442
H  -2.730904  -1.324505  -0.870649
H  -2.718383  -1.193441   0.863505
C  -0.167941  -0.682489   0.056165
H  -1.355738   0.812937   0.836866
H  -1.379897   0.825334  -0.897018
H  -0.140428  -1.324941   0.988005
H   0.758984  -0.070710  -0.002969
H  -0.176331  -1.348138  -0.820475
