butane_opt
 OpenBabel08242015413D

 14 13  0  0  0  0  0  0  0  0999 V2000
   -3.9688    0.2378    0.0595 C   0  0  0  0  0  0  0  0  0  0  0  0
   -2.7089   -0.6018   -0.0109 C   0  0  0  0  0  0  0  0  0  0  0  0
   -4.8621   -0.3155   -0.0284 H   0  0  0  0  0  0  0  0  0  0  0  0
   -4.0184    0.7617   -0.7488 H   0  0  0  0  0  0  0  0  0  0  0  0
   -3.9277    1.1810    1.0554 H   0  0  0  0  0  0  0  0  0  0  0  0
   -1.4014    0.1855   -0.0332 C   0  0  0  0  0  0  0  0  0  0  0  0
   -2.6460   -1.2479   -0.8818 H   0  0  0  0  0  0  0  0  0  0  0  0
   -2.7366   -1.2515    0.8933 H   0  0  0  0  0  0  0  0  0  0  0  0
   -0.1347   -0.6985    0.0742 C   0  0  0  0  0  0  0  0  0  0  0  0
   -1.4456    0.8256    0.7856 H   0  0  0  0  0  0  0  0  0  0  0  0
   -1.3505    0.8727   -0.9588 H   0  0  0  0  0  0  0  0  0  0  0  0
   -0.1847   -1.4227    1.0503 H   0  0  0  0  0  0  0  0  0  0  0  0
    0.7782   -0.1024   -0.0783 H   0  0  0  0  0  0  0  0  0  0  0  0
   -0.0546   -1.2556   -0.6984 H   0  0  0  0  0  0  0  0  0  0  0  0
  1  5  1  0  0  0  0
  2  1  1  0  0  0  0
  2  8  1  0  0  0  0
  3  1  1  0  0  0  0
  4  1  1  0  0  0  0
  6  2  1  0  0  0  0
  6  9  1  0  0  0  0
  6 10  1  0  0  0  0
  7  2  1  0  0  0  0
  9 12  1  0  0  0  0
 11  6  1  0  0  0  0
 13  9  1  0  0  0  0
 14  9  1  0  0  0  0
M  END
$$$$
