14
butane_opt
C  -3.931785   0.244271   0.061719
C  -2.696412  -0.570486   0.030743
H  -4.883334  -0.437427  -0.075985
H  -3.783770   0.688930  -0.763544
H  -4.007461   1.036216   0.989071
C  -1.431450   0.197758  -0.065719
H  -2.705372  -1.290227  -0.880880
H  -2.643687  -1.204162   0.887308
C  -0.159827  -0.707255   0.076318
H  -1.425663   0.811700   0.754217
H  -1.374552   0.785431  -0.957608
H  -0.184331  -1.315558   0.979513
H   0.714268  -0.148636   0.096679
H  -0.082948  -1.379261  -0.802160
