14
butane_opt
C  -3.954191   0.244177   0.063859
C  -2.714920  -0.615906  -0.030092
H  -4.906115  -0.385466   0.270395
H  -4.073400   0.936935  -0.841410
H  -3.833329   0.930187   0.936031
C  -1.408556   0.225285  -0.039817
H  -2.775524  -1.359420  -0.957346
H  -2.622477  -1.178532   0.837162
C  -0.146181  -0.714113   0.075991
H  -1.388078   0.927043   0.801625
H  -1.406980   0.850158  -0.941360
H  -0.116270  -1.404085   1.070378
H   0.748954  -0.145851   0.114993
H   0.043453  -1.323757  -0.681587
