butane_opt
 OpenBabel08242015413D

 14 13  0  0  0  0  0  0  0  0999 V2000
   -3.9538    0.2638   -0.0165 C   0  0  0  0  0  0  0  0  0  0  0  0
   -2.6799   -0.6157    0.0984 C   0  0  0  0  0  0  0  0  0  0  0  0
   -4.8606   -0.2943   -0.2518 H   0  0  0  0  0  0  0  0  0  0  0  0
   -3.8803    0.8513   -0.8902 H   0  0  0  0  0  0  0  0  0  0  0  0
   -4.0457    1.1063    0.9326 H   0  0  0  0  0  0  0  0  0  0  0  0
   -1.3977    0.1499    0.0266 C   0  0  0  0  0  0  0  0  0  0  0  0
   -2.6790   -1.2604   -0.6962 H   0  0  0  0  0  0  0  0  0  0  0  0
   -2.6424   -1.3540    1.0501 H   0  0  0  0  0  0  0  0  0  0  0  0
   -0.1834   -0.6760    0.0010 C   0  0  0  0  0  0  0  0  0  0  0  0
   -1.3448    0.9073    0.9043 H   0  0  0  0  0  0  0  0  0  0  0  0
   -1.4348    0.7617   -0.8613 H   0  0  0  0  0  0  0  0  0  0  0  0
   -0.1343   -1.2540    0.8705 H   0  0  0  0  0  0  0  0  0  0  0  0
    0.7689   -0.0437   -0.0172 H   0  0  0  0  0  0  0  0  0  0  0  0
   -0.1982   -1.3560   -0.9166 H   0  0  0  0  0  0  0  0  0  0  0  0
  1  2  1  0  0  0  0
  1  5  1  0  0  0  0
  2  8  1  0  0  0  0
  3  1  1  0  0  0  0
  4  1  1  0  0  0  0
  6  2  1  0  0  0  0
  6 10  1  0  0  0  0
  7  2  1  0  0  0  0
  9  6  1  0  0  0  0
  9 12  1  0  0  0  0
 11  6  1  0  0  0  0
 13  9  1  0  0  0  0
 14  9  1  0  0  0  0
M  END
$$$$
