14
butane_opt
C  -3.925078   0.250545   0.063412
C  -2.709612  -0.589063  -0.025207
H  -4.954686  -0.447060   0.069159
H  -4.011784   0.891333  -0.857121
H  -3.886482   0.936450   0.926633
C  -1.395147   0.201969  -0.021894
H  -2.788278  -1.241191  -0.831506
H  -2.707006  -1.220159   0.893180
C  -0.157665  -0.719589   0.070293
H  -1.453542   0.879110   0.810764
H  -1.418957   0.838861  -0.886898
H  -0.150958  -1.370124   0.996923
H   0.762923  -0.124928  -0.006055
H  -0.140576  -1.354153  -0.720260
