14
butane_opt
C  -3.956051   0.247649  -0.044272
C  -2.686510  -0.587317   0.085589
H  -4.919931  -0.369650   0.003779
H  -3.920496   0.926145  -0.992966
H  -4.006598   0.855292   0.763071
C  -1.415657   0.190237   0.103494
H  -2.710771  -1.265155  -0.818890
H  -2.702081  -1.259089   1.010873
C  -0.162893  -0.703887  -0.013559
H  -1.337694   0.898643   0.981434
H  -1.384211   0.775709  -0.776548
H   0.096768  -1.382114   0.891931
H   0.776286  -0.092301  -0.294121
H  -0.256868  -1.319771  -0.909108
