butane_opt
 OpenBabel08242015413D

 14 13  0  0  0  0  0  0  0  0999 V2000
   -3.9679    0.2788    0.0794 C   0  0  0  0  0  0  0  0  0  0  0  0
   -2.7154   -0.6420   -0.0472 C   0  0  0  0  0  0  0  0  0  0  0  0
   -4.8413   -0.3081    0.2983 H   0  0  0  0  0  0  0  0  0  0  0  0
   -4.1535    1.0197   -0.8917 H   0  0  0  0  0  0  0  0  0  0  0  0
   -3.8906    0.8453    0.8945 H   0  0  0  0  0  0  0  0  0  0  0  0
   -1.3760    0.1841   -0.0387 C   0  0  0  0  0  0  0  0  0  0  0  0
   -2.7136   -1.3316   -0.9463 H   0  0  0  0  0  0  0  0  0  0  0  0
   -2.6206   -1.2049    0.7786 H   0  0  0  0  0  0  0  0  0  0  0  0
   -0.1511   -0.6861    0.0843 C   0  0  0  0  0  0  0  0  0  0  0  0
   -1.3093    0.8848    0.8262 H   0  0  0  0  0  0  0  0  0  0  0  0
   -1.3550    0.7683   -0.8953 H   0  0  0  0  0  0  0  0  0  0  0  0
   -0.2099   -1.3841    1.0317 H   0  0  0  0  0  0  0  0  0  0  0  0
    0.7229   -0.1547    0.1312 H   0  0  0  0  0  0  0  0  0  0  0  0
   -0.1136   -1.2242   -0.7088 H   0  0  0  0  0  0  0  0  0  0  0  0
  1  3  1  0  0  0  0
  1  5  1  0  0  0  0
  2  6  1  0  0  0  0
  2  1  1  0  0  0  0
  2  8  1  0  0  0  0
  4  1  1  0  0  0  0
  6  9  1  0  0  0  0
  6 10  1  0  0  0  0
  7  2  1  0  0  0  0
  9 13  1  0  0  0  0
  9 12  1  0  0  0  0
 11  6  1  0  0  0  0
 14  9  1  0  0  0  0
M  END
$$$$
