14
butane_opt
C  -3.971425   0.270178  -0.035533
C  -2.710876  -0.631411   0.061609
H  -4.810574  -0.269334   0.315041
H  -4.039455   1.096471  -1.074770
H  -3.912093   0.752968   0.766682
C  -1.389833   0.183776   0.076144
H  -2.653660  -1.327942  -0.733135
H  -2.770033  -1.188091   0.901486
C  -0.143936  -0.695268   0.000822
H  -1.325565   0.867844   0.949810
H  -1.432801   0.806186  -0.808028
H  -0.091565  -1.217690   0.829842
H   0.823231  -0.043456  -0.016295
H  -0.231246  -1.453409  -0.944673
