14
butane_opt
C  -3.928970   0.273605   0.021658
C  -2.701332  -0.598952   0.023533
H  -4.918016  -0.329033   0.289795
H  -4.008515   1.031130  -1.005627
H  -3.922473   0.713017   0.698759
C  -1.410989   0.156984   0.034598
H  -2.618396  -1.346948  -0.847804
H  -2.704470  -1.241202   0.887331
C  -0.174711  -0.681214   0.030289
H  -1.401491   0.828285   0.918459
H  -1.350383   0.821031  -0.868170
H  -0.107106  -1.237675   0.873305
H   0.764977  -0.065991   0.072123
H  -0.173829  -1.444855  -0.915579
