14
butane_opt
C  -3.973204   0.266137  -0.020213
C  -2.713253  -0.616716   0.074151
H  -4.888816  -0.373168   0.206030
H  -3.957770   1.120672  -1.108432
H  -3.973275   0.685487   0.665982
C  -1.402640   0.185279   0.071563
H  -2.653424  -1.331515  -0.793947
H  -2.659123  -1.196517   0.935415
C  -0.134708  -0.690818  -0.004220
H  -1.291065   0.960762   1.014698
H  -1.435139   0.759500  -0.805450
H  -0.038215  -1.253674   0.842999
H   0.765739  -0.142083  -0.017969
H  -0.204852  -1.428048  -0.976316
