14
butane_opt
C  -3.934705   0.270736   0.064833
C  -2.666524  -0.640929  -0.015052
H  -4.833197  -0.254468   0.279017
H  -4.105417   1.009194  -0.881799
H  -3.924413   0.881573   0.873859
C  -1.410630   0.158792  -0.026039
H  -2.734735  -1.386795  -0.912706
H  -2.653615  -1.091791   0.759934
C  -0.181194  -0.668210   0.073573
H  -1.434301   0.791043   0.792459
H  -1.354081   0.830901  -1.004795
H  -0.298937  -1.310192   0.986622
H   0.744177  -0.035815   0.146215
H  -0.116377  -1.347091  -0.770450
