14
butane_opt
C  -3.955543   0.294003   0.064400
C  -2.700424  -0.654024  -0.043926
H  -4.906118  -0.293707   0.135593
H  -4.066712   0.838171  -0.796940
H  -3.964095   0.981973   0.933135
C  -1.380348   0.186868  -0.016434
H  -2.778432  -1.323323  -0.912672
H  -2.691529  -1.286182   0.882164
C  -0.160454  -0.682349   0.086999
H  -1.374741   0.803393   0.803720
H  -1.328643   0.806881  -0.910655
H  -0.073193  -1.395473   1.049599
H   0.705818  -0.122185  -0.109325
H  -0.184805  -1.214696  -0.709732
