14
butane_opt
C  -3.985208   0.273961   0.036017
C  -2.687791  -0.637354   0.022996
H  -4.865871  -0.293004   0.099169
H  -4.063436   0.895541  -0.855044
H  -3.943391   0.971849   0.946358
C  -1.389981   0.165457  -0.021804
H  -2.671449  -1.261480  -0.824181
H  -2.612609  -1.275326   0.938396
C  -0.161319  -0.676178   0.049206
H  -1.369175   0.800671   0.789728
H  -1.310000   0.908264  -1.009664
H  -0.225382  -1.161829   0.911110
H   0.796269  -0.072181   0.283662
H  -0.068372  -1.501011  -0.887657
