butane_opt
 OpenBabel08242015413D

 14 13  0  0  0  0  0  0  0  0999 V2000
   -3.9852    0.2740    0.0360 C   0  0  0  0  0  0  0  0  0  0  0  0
   -2.6878   -0.6374    0.0230 C   0  0  0  0  0  0  0  0  0  0  0  0
   -4.8659   -0.2930    0.0992 H   0  0  0  0  0  0  0  0  0  0  0  0
   -4.0634    0.8955   -0.8550 H   0  0  0  0  0  0  0  0  0  0  0  0
   -3.9434    0.9718    0.9464 H   0  0  0  0  0  0  0  0  0  0  0  0
   -1.3900    0.1655   -0.0218 C   0  0  0  0  0  0  0  0  0  0  0  0
   -2.6714   -1.2615   -0.8242 H   0  0  0  0  0  0  0  0  0  0  0  0
   -2.6126   -1.2753    0.9384 H   0  0  0  0  0  0  0  0  0  0  0  0
   -0.1613   -0.6762    0.0492 C   0  0  0  0  0  0  0  0  0  0  0  0
   -1.3692    0.8007    0.7897 H   0  0  0  0  0  0  0  0  0  0  0  0
   -1.3100    0.9083   -1.0097 H   0  0  0  0  0  0  0  0  0  0  0  0
   -0.2254   -1.1618    0.9111 H   0  0  0  0  0  0  0  0  0  0  0  0
    0.7963   -0.0722    0.2837 H   0  0  0  0  0  0  0  0  0  0  0  0
   -0.0684   -1.5010   -0.8877 H   0  0  0  0  0  0  0  0  0  0  0  0
  1  3  1  0  0  0  0
  1  5  1  0  0  0  0
  2  1  1  0  0  0  0
  2  8  1  0  0  0  0
  4  1  1  0  0  0  0
  6  2  1  0  0  0  0
  6  9  1  0  0  0  0
  6 10  1  0  0  0  0
  7  2  1  0  0  0  0
  9 13  1  0  0  0  0
  9 12  1  0  0  0  0
 11  6  1  0  0  0  0
 14  9  1  0  0  0  0
M  END
$$$$
