14
butane_opt
C  -3.967856   0.278835   0.079438
C  -2.715448  -0.641959  -0.047237
H  -4.841342  -0.308134   0.298298
H  -4.153504   1.019743  -0.891657
H  -3.890622   0.845254   0.894453
C  -1.375982   0.184113  -0.038739
H  -2.713624  -1.331640  -0.946327
H  -2.620563  -1.204946   0.778565
C  -0.151131  -0.686087   0.084332
H  -1.309329   0.884797   0.826198
H  -1.354960   0.768322  -0.895338
H  -0.209876  -1.384071   1.031749
H   0.722929  -0.154697   0.131230
H  -0.113567  -1.224187  -0.708753
