butane_opt
 OpenBabel08242015413D

 14 13  0  0  0  0  0  0  0  0999 V2000
   -3.9714    0.2702   -0.0355 C   0  0  0  0  0  0  0  0  0  0  0  0
   -2.7109   -0.6314    0.0616 C   0  0  0  0  0  0  0  0  0  0  0  0
   -4.8106   -0.2693    0.3150 H   0  0  0  0  0  0  0  0  0  0  0  0
   -4.0395    1.0965   -1.0748 H   0  0  0  0  0  0  0  0  0  0  0  0
   -3.9121    0.7530    0.7667 H   0  0  0  0  0  0  0  0  0  0  0  0
   -1.3898    0.1838    0.0761 C   0  0  0  0  0  0  0  0  0  0  0  0
   -2.6537   -1.3279   -0.7331 H   0  0  0  0  0  0  0  0  0  0  0  0
   -2.7700   -1.1881    0.9015 H   0  0  0  0  0  0  0  0  0  0  0  0
   -0.1439   -0.6953    0.0008 C   0  0  0  0  0  0  0  0  0  0  0  0
   -1.3256    0.8678    0.9498 H   0  0  0  0  0  0  0  0  0  0  0  0
   -1.4328    0.8062   -0.8080 H   0  0  0  0  0  0  0  0  0  0  0  0
   -0.0916   -1.2177    0.8298 H   0  0  0  0  0  0  0  0  0  0  0  0
    0.8232   -0.0435   -0.0163 H   0  0  0  0  0  0  0  0  0  0  0  0
   -0.2312   -1.4534   -0.9447 H   0  0  0  0  0  0  0  0  0  0  0  0
  1  2  1  0  0  0  0
  1  3  1  0  0  0  0
  1  5  1  0  0  0  0
  2  6  1  0  0  0  0
  2  8  1  0  0  0  0
  4  1  1  0  0  0  0
  6 10  1  0  0  0  0
  7  2  1  0  0  0  0
  9  6  1  0  0  0  0
  9 12  1  0  0  0  0
 11  6  1  0  0  0  0
 13  9  1  0  0  0  0
 14  9  1  0  0  0  0
M  END
$$$$
