14
butane_opt
C  -3.943545   0.251792  -0.008304
C  -2.706574  -0.612906   0.055257
H  -4.832866  -0.313919   0.141601
H  -4.026687   0.997636  -0.987831
H  -3.896923   0.779057   0.759341
C  -1.416153   0.198825   0.040770
H  -2.731070  -1.257274  -0.773463
H  -2.768510  -1.231901   0.945315
C  -0.141449  -0.702729   0.004516
H  -1.329143   0.958812   0.964075
H  -1.466574   0.789794  -0.774557
H  -0.090274  -1.275475   0.900665
H   0.721959  -0.152634   0.021403
H  -0.109635  -1.392099  -0.880730
