butane_opt
 OpenBabel08242015413D

 14 13  0  0  0  0  0  0  0  0999 V2000
   -3.9541    0.2742    0.0684 C   0  0  0  0  0  0  0  0  0  0  0  0
   -2.6960   -0.6335   -0.0281 C   0  0  0  0  0  0  0  0  0  0  0  0
   -4.7631   -0.2418   -0.0585 H   0  0  0  0  0  0  0  0  0  0  0  0
   -4.0836    0.7374   -0.7709 H   0  0  0  0  0  0  0  0  0  0  0  0
   -3.9638    1.0450    0.9836 H   0  0  0  0  0  0  0  0  0  0  0  0
   -1.4125    0.1683   -0.0222 C   0  0  0  0  0  0  0  0  0  0  0  0
   -2.7180   -1.3039   -0.8521 H   0  0  0  0  0  0  0  0  0  0  0  0
   -2.6891   -1.2241    0.8579 H   0  0  0  0  0  0  0  0  0  0  0  0
   -0.1491   -0.6770    0.0736 C   0  0  0  0  0  0  0  0  0  0  0  0
   -1.3322    0.8436    0.8016 H   0  0  0  0  0  0  0  0  0  0  0  0
   -1.3627    0.8055   -0.9035 H   0  0  0  0  0  0  0  0  0  0  0  0
   -0.1530   -1.4852    1.1211 H   0  0  0  0  0  0  0  0  0  0  0  0
    0.7637   -0.0958   -0.1408 H   0  0  0  0  0  0  0  0  0  0  0  0
   -0.1858   -1.1293   -0.6693 H   0  0  0  0  0  0  0  0  0  0  0  0
  1  5  1  0  0  0  0
  2  6  1  0  0  0  0
  2  1  1  0  0  0  0
  2  8  1  0  0  0  0
  3  1  1  0  0  0  0
  4  1  1  0  0  0  0
  6  9  1  0  0  0  0
  6 10  1  0  0  0  0
  7  2  1  0  0  0  0
  9 12  1  0  0  0  0
 11  6  1  0  0  0  0
 13  9  1  0  0  0  0
 14  9  1  0  0  0  0
M  END
$$$$
