14
butane_opt
C  -3.928847   0.264597   0.010808
C  -2.690614  -0.612582   0.074552
H  -4.834349  -0.310329   0.060750
H  -3.989424   0.958368  -0.956200
H  -4.053137   0.883272   0.826646
C  -1.415589   0.155077  -0.012635
H  -2.643548  -1.208145  -0.731899
H  -2.706644  -1.320557   0.974660
C  -0.169120  -0.686114   0.015992
H  -1.365995   0.966148   0.919730
H  -1.392774   0.761940  -0.868469
H  -0.258741  -1.126178   0.818451
H   0.791468  -0.027363   0.290063
H  -0.114190  -1.510307  -0.971626
