butane_opt
 OpenBabel08242015413D

 14 13  0  0  0  0  0  0  0  0999 V2000
   -3.9277    0.2575    0.0642 C   0  0  0  0  0  0  0  0  0  0  0  0
   -2.6963   -0.6132    0.0052 C   0  0  0  0  0  0  0  0  0  0  0  0
   -4.8458   -0.3657    0.0192 H   0  0  0  0  0  0  0  0  0  0  0  0
   -3.9560    0.8537   -0.8380 H   0  0  0  0  0  0  0  0  0  0  0  0
   -3.9651    0.9709    0.9640 H   0  0  0  0  0  0  0  0  0  0  0  0
   -1.4138    0.1962   -0.0317 C   0  0  0  0  0  0  0  0  0  0  0  0
   -2.7121   -1.3534   -0.8909 H   0  0  0  0  0  0  0  0  0  0  0  0
   -2.7047   -1.1582    0.8303 H   0  0  0  0  0  0  0  0  0  0  0  0
   -0.1724   -0.7026    0.0684 C   0  0  0  0  0  0  0  0  0  0  0  0
   -1.3304    0.8516    0.8091 H   0  0  0  0  0  0  0  0  0  0  0  0
   -1.3527    0.9362   -0.9714 H   0  0  0  0  0  0  0  0  0  0  0  0
   -0.2886   -1.3993    1.0175 H   0  0  0  0  0  0  0  0  0  0  0  0
    0.7338   -0.1270    0.0321 H   0  0  0  0  0  0  0  0  0  0  0  0
   -0.0634   -1.3505   -0.7962 H   0  0  0  0  0  0  0  0  0  0  0  0
  1  5  1  0  0  0  0
  2  1  1  0  0  0  0
  2  8  1  0  0  0  0
  3  1  1  0  0  0  0
  4  1  1  0  0  0  0
  6  2  1  0  0  0  0
  6  9  1  0  0  0  0
  6 10  1  0  0  0  0
  7  2  1  0  0  0  0
  9 12  1  0  0  0  0
 11  6  1  0  0  0  0
 13  9  1  0  0  0  0
 14  9  1  0  0  0  0
M  END
$$$$
