14
butane_opt
C  -3.900546   0.255774  -0.008958
C  -2.696012  -0.608038   0.055768
H  -4.886437  -0.350551  -0.008504
H  -3.981007   0.899676  -0.946982
H  -3.950347   0.904104   0.839415
C  -1.418915   0.186485   0.050266
H  -2.754778  -1.203468  -0.806214
H  -2.790609  -1.230959   0.948853
C  -0.174878  -0.705466   0.005475
H  -1.308918   0.996709   1.001831
H  -1.504348   0.772421  -0.804978
H  -0.094694  -1.441317   0.979987
H   0.753043  -0.082159  -0.181448
H  -0.212708  -1.294150  -0.804526
