14
butane_opt
C  -3.938286   0.242811  -0.025436
C  -2.715913  -0.604083   0.064226
H  -4.814573  -0.368915   0.018285
H  -3.917104   0.852140  -0.944960
H  -3.930686   1.014109   0.890204
C  -1.406561   0.212820   0.061322
H  -2.684903  -1.201447  -0.711242
H  -2.886230  -1.278728   0.970347
C  -0.149948  -0.708570  -0.009841
H  -1.409817   0.918173   0.950575
H  -1.434702   0.785141  -0.761286
H   0.019561  -1.421016   0.937362
H   0.705457  -0.193977  -0.143039
H  -0.144543  -1.287274  -0.828426
