butane_opt
 OpenBabel08242015413D

 14 13  0  0  0  0  0  0  0  0999 V2000
   -3.9587    0.2765   -0.0154 C   0  0  0  0  0  0  0  0  0  0  0  0
   -2.6970   -0.6415    0.0762 C   0  0  0  0  0  0  0  0  0  0  0  0
   -4.8356   -0.2589    0.1120 H   0  0  0  0  0  0  0  0  0  0  0  0
   -4.0028    0.9678   -0.9086 H   0  0  0  0  0  0  0  0  0  0  0  0
   -4.0462    0.9350    0.8149 H   0  0  0  0  0  0  0  0  0  0  0  0
   -1.3952    0.1723    0.0045 C   0  0  0  0  0  0  0  0  0  0  0  0
   -2.7087   -1.2073   -0.6708 H   0  0  0  0  0  0  0  0  0  0  0  0
   -2.6094   -1.3954    1.0268 H   0  0  0  0  0  0  0  0  0  0  0  0
   -0.1643   -0.6673    0.0142 C   0  0  0  0  0  0  0  0  0  0  0  0
   -1.3390    0.8360    0.8789 H   0  0  0  0  0  0  0  0  0  0  0  0
   -1.3337    0.7251   -0.8074 H   0  0  0  0  0  0  0  0  0  0  0  0
   -0.2355   -1.0672    0.7825 H   0  0  0  0  0  0  0  0  0  0  0  0
    0.7274   -0.0960    0.2526 H   0  0  0  0  0  0  0  0  0  0  0  0
   -0.0613   -1.5935   -1.0310 H   0  0  0  0  0  0  0  0  0  0  0  0
  1  2  1  0  0  0  0
  1  3  1  0  0  0  0
  1  5  1  0  0  0  0
  2  8  1  0  0  0  0
  4  1  1  0  0  0  0
  6  9  1  0  0  0  0
  6  2  1  0  0  0  0
  6 10  1  0  0  0  0
  7  2  1  0  0  0  0
  9 13  1  0  0  0  0
  9 12  1  0  0  0  0
 11  6  1  0  0  0  0
 14  9  1  0  0  0  0
M  END
$$$$
