butane_opt
 OpenBabel08242015413D

 14 13  0  0  0  0  0  0  0  0999 V2000
   -3.9423    0.2629   -0.0069 C   0  0  0  0  0  0  0  0  0  0  0  0
   -2.7044   -0.6065    0.0581 C   0  0  0  0  0  0  0  0  0  0  0  0
   -4.9164   -0.4033   -0.0079 H   0  0  0  0  0  0  0  0  0  0  0  0
   -3.9402    0.9048   -0.9404 H   0  0  0  0  0  0  0  0  0  0  0  0
   -3.9794    0.9169    0.8329 H   0  0  0  0  0  0  0  0  0  0  0  0
   -1.4084    0.1928    0.0539 C   0  0  0  0  0  0  0  0  0  0  0  0
   -2.6782   -1.2934   -0.8062 H   0  0  0  0  0  0  0  0  0  0  0  0
   -2.7513   -1.2544    0.9521 H   0  0  0  0  0  0  0  0  0  0  0  0
   -0.1525   -0.7056    0.0132 C   0  0  0  0  0  0  0  0  0  0  0  0
   -1.3673    0.9138    0.9196 H   0  0  0  0  0  0  0  0  0  0  0  0
   -1.3665    0.8132   -0.8179 H   0  0  0  0  0  0  0  0  0  0  0  0
   -0.0219   -1.3742    0.9155 H   0  0  0  0  0  0  0  0  0  0  0  0
    0.7457   -0.0965   -0.1914 H   0  0  0  0  0  0  0  0  0  0  0  0
   -0.2436   -1.3296   -0.8347 H   0  0  0  0  0  0  0  0  0  0  0  0
  1  2  1  0  0  0  0
  1  5  1  0  0  0  0
  2  8  1  0  0  0  0
  3  1  1  0  0  0  0
  4  1  1  0  0  0  0
  6  2  1  0  0  0  0
  6 10  1  0  0  0  0
  7  2  1  0  0  0  0
  9  6  1  0  0  0  0
  9 12  1  0  0  0  0
 11  6  1  0  0  0  0
 13  9  1  0  0  0  0
 14  9  1  0  0  0  0
M  END
$$$$
