14
butane_opt
C  -3.945820   0.273925   0.045321
C  -2.689371  -0.630337   0.017231
H  -4.847448  -0.294935   0.081115
H  -3.990241   0.878654  -0.852009
H  -3.919091   0.922283   0.909708
C  -1.403618   0.182377  -0.019624
H  -2.701232  -1.314071  -0.833155
H  -2.676628  -1.229530   0.880222
C  -0.177006  -0.691972   0.052651
H  -1.363856   0.851382   0.794907
H  -1.332099   0.832177  -0.940926
H  -0.279181  -1.275497   0.941979
H   0.732188  -0.071005   0.126526
H  -0.057599  -1.382470  -0.821220
