14
butane_opt
C  -3.948383   0.286966   0.056643
C  -2.718908  -0.644190   0.023535
H  -4.870399  -0.335620  -0.229527
H  -3.885167   0.665788  -0.723554
H  -4.153233   1.117334   1.035987
C  -1.390024   0.189753  -0.032677
H  -2.776903  -1.338639  -0.820029
H  -2.583678  -1.262424   0.874993
C  -0.156339  -0.689189   0.062413
H  -1.357401   0.825253   0.792215
H  -1.346480   0.913998  -1.045450
H  -0.148578  -1.359900   1.028712
H   0.732991  -0.114466  -0.047666
H  -0.073074  -1.308908  -0.727272
