butane_opt
 OpenBabel08242015413D

 14 13  0  0  0  0  0  0  0  0999 V2000
   -3.9690    0.2930   -0.0003 C   0  0  0  0  0  0  0  0  0  0  0  0
   -2.6994   -0.6554    0.0681 C   0  0  0  0  0  0  0  0  0  0  0  0
   -4.8164   -0.2917    0.1052 H   0  0  0  0  0  0  0  0  0  0  0  0
   -3.9969    0.9464   -0.8804 H   0  0  0  0  0  0  0  0  0  0  0  0
   -3.9379    0.9525    0.8848 H   0  0  0  0  0  0  0  0  0  0  0  0
   -1.3758    0.1627    0.0039 C   0  0  0  0  0  0  0  0  0  0  0  0
   -2.6711   -1.3249   -0.7272 H   0  0  0  0  0  0  0  0  0  0  0  0
   -2.7450   -1.2670    0.9411 H   0  0  0  0  0  0  0  0  0  0  0  0
   -0.1727   -0.6734    0.0289 C   0  0  0  0  0  0  0  0  0  0  0  0
   -1.3888    0.8216    0.8169 H   0  0  0  0  0  0  0  0  0  0  0  0
   -1.3519    0.8930   -0.9792 H   0  0  0  0  0  0  0  0  0  0  0  0
   -0.2643   -1.0914    0.8013 H   0  0  0  0  0  0  0  0  0  0  0  0
    0.7543   -0.0541    0.2213 H   0  0  0  0  0  0  0  0  0  0  0  0
   -0.0256   -1.5740   -0.9764 H   0  0  0  0  0  0  0  0  0  0  0  0
  1  2  1  0  0  0  0
  1  3  1  0  0  0  0
  1  5  1  0  0  0  0
  2  8  1  0  0  0  0
  4  1  1  0  0  0  0
  6  9  1  0  0  0  0
  6  2  1  0  0  0  0
  6 10  1  0  0  0  0
  7  2  1  0  0  0  0
  9 13  1  0  0  0  0
  9 12  1  0  0  0  0
 11  6  1  0  0  0  0
 14  9  1  0  0  0  0
M  END
$$$$
