14
butane_opt
C  -3.926588   0.251462  -0.008557
C  -2.703706  -0.603164   0.071128
H  -4.833169  -0.342605   0.078686
H  -3.934833   0.911434  -0.927480
H  -3.946899   0.870427   0.829560
C  -1.414992   0.201238   0.025482
H  -2.710555  -1.222856  -0.745198
H  -2.747635  -1.288476   1.008715
C  -0.162226  -0.715022   0.004404
H  -1.391583   0.907385   0.908328
H  -1.390983   0.846376  -0.891745
H  -0.217113  -1.168908   0.822561
H   0.749871  -0.118509   0.176478
H  -0.101177  -1.490352  -0.947249
