butane_opt
 OpenBabel08242015413D

 14 13  0  0  0  0  0  0  0  0999 V2000
   -3.9484    0.2870    0.0566 C   0  0  0  0  0  0  0  0  0  0  0  0
   -2.7189   -0.6442    0.0235 C   0  0  0  0  0  0  0  0  0  0  0  0
   -4.8704   -0.3356   -0.2295 H   0  0  0  0  0  0  0  0  0  0  0  0
   -3.8852    0.6658   -0.7236 H   0  0  0  0  0  0  0  0  0  0  0  0
   -4.1532    1.1173    1.0360 H   0  0  0  0  0  0  0  0  0  0  0  0
   -1.3900    0.1898   -0.0327 C   0  0  0  0  0  0  0  0  0  0  0  0
   -2.7769   -1.3386   -0.8200 H   0  0  0  0  0  0  0  0  0  0  0  0
   -2.5837   -1.2624    0.8750 H   0  0  0  0  0  0  0  0  0  0  0  0
   -0.1563   -0.6892    0.0624 C   0  0  0  0  0  0  0  0  0  0  0  0
   -1.3574    0.8253    0.7922 H   0  0  0  0  0  0  0  0  0  0  0  0
   -1.3465    0.9140   -1.0454 H   0  0  0  0  0  0  0  0  0  0  0  0
   -0.1486   -1.3599    1.0287 H   0  0  0  0  0  0  0  0  0  0  0  0
    0.7330   -0.1145   -0.0477 H   0  0  0  0  0  0  0  0  0  0  0  0
   -0.0731   -1.3089   -0.7273 H   0  0  0  0  0  0  0  0  0  0  0  0
  1  5  1  0  0  0  0
  2  1  1  0  0  0  0
  2  8  1  0  0  0  0
  3  1  1  0  0  0  0
  4  1  1  0  0  0  0
  6  2  1  0  0  0  0
  6  9  1  0  0  0  0
  6 10  1  0  0  0  0
  7  2  1  0  0  0  0
  9 12  1  0  0  0  0
 11  6  1  0  0  0  0
 13  9  1  0  0  0  0
 14  9  1  0  0  0  0
M  END
$$$$
