14
butane_opt
C  -3.940040   0.290458  -0.046716
C  -2.685811  -0.630964   0.073989
H  -4.849110  -0.257072   0.028637
H  -4.024936   0.974503  -0.961017
H  -3.932458   0.821942   0.724635
C  -1.390650   0.151812   0.109383
H  -2.674533  -1.255270  -0.743378
H  -2.761633  -1.342040   1.019931
C  -0.185907  -0.687925  -0.033018
H  -1.327879   0.924459   1.020252
H  -1.435097   0.772158  -0.755127
H  -0.076417  -1.326909   0.881947
H   0.831739   0.037732  -0.186824
H  -0.359226  -1.286850  -0.843260
