14
butane_opt
C  -3.928708   0.235018   0.053988
C  -2.701926  -0.580511  -0.035746
H  -4.879750  -0.365177   0.287511
H  -4.067094   1.007210  -0.914386
H  -3.710652   0.817363   0.867229
C  -1.412809   0.203490  -0.014888
H  -2.779338  -1.280596  -0.907626
H  -2.703405  -1.237453   0.916222
C  -0.157505  -0.717066   0.083478
H  -1.507559   0.933703   0.842334
H  -1.436171   0.792312  -0.886073
H  -0.158881  -1.347347   0.947287
H   0.762020  -0.089429   0.005672
H  -0.125048  -1.390641  -0.782450
