14
butane_opt
C  -3.934857   0.256699   0.005420
C  -2.704333  -0.604689   0.047803
H  -4.850602  -0.345754  -0.032735
H  -3.853968   0.839540  -0.894137
H  -4.055940   0.921456   0.835800
C  -1.400608   0.191954   0.032386
H  -2.649099  -1.275546  -0.760688
H  -2.704860  -1.212410   0.905188
C  -0.179790  -0.710830   0.008917
H  -1.377911   0.994650   0.990077
H  -1.402432   0.737203  -0.771138
H  -0.007497  -1.443123   1.029902
H   0.737551  -0.102439  -0.228355
H  -0.222440  -1.185968  -0.749045
