butane_opt
 OpenBabel08242015413D

 14 13  0  0  0  0  0  0  0  0999 V2000
   -3.9491    0.2460   -0.0137 C   0  0  0  0  0  0  0  0  0  0  0  0
   -2.7065   -0.5973    0.0851 C   0  0  0  0  0  0  0  0  0  0  0  0
   -4.8795   -0.3849   -0.0547 H   0  0  0  0  0  0  0  0  0  0  0  0
   -3.9108    0.8758   -0.9119 H   0  0  0  0  0  0  0  0  0  0  0  0
   -4.0087    0.9706    0.8762 H   0  0  0  0  0  0  0  0  0  0  0  0
   -1.4042    0.2019    0.0328 C   0  0  0  0  0  0  0  0  0  0  0  0
   -2.6913   -1.2711   -0.7634 H   0  0  0  0  0  0  0  0  0  0  0  0
   -2.7208   -1.2537    1.0020 H   0  0  0  0  0  0  0  0  0  0  0  0
   -0.1556   -0.7076    0.0015 C   0  0  0  0  0  0  0  0  0  0  0  0
   -1.3642    0.9055    0.9027 H   0  0  0  0  0  0  0  0  0  0  0  0
   -1.4059    0.8066   -0.8706 H   0  0  0  0  0  0  0  0  0  0  0  0
   -0.1158   -1.2933    0.8570 H   0  0  0  0  0  0  0  0  0  0  0  0
    0.7420   -0.1363    0.0102 H   0  0  0  0  0  0  0  0  0  0  0  0
   -0.0726   -1.4130   -0.8803 H   0  0  0  0  0  0  0  0  0  0  0  0
  1  2  1  0  0  0  0
  1  5  1  0  0  0  0
  2  8  1  0  0  0  0
  3  1  1  0  0  0  0
  4  1  1  0  0  0  0
  6  2  1  0  0  0  0
  6 10  1  0  0  0  0
  7  2  1  0  0  0  0
  9 13  1  0  0  0  0
  9  6  1  0  0  0  0
  9 12  1  0  0  0  0
 11  6  1  0  0  0  0
 14  9  1  0  0  0  0
M  END
$$$$
