butane_opt
 OpenBabel08242015413D

 14 13  0  0  0  0  0  0  0  0999 V2000
   -3.9287    0.2350    0.0540 C   0  0  0  0  0  0  0  0  0  0  0  0
   -2.7019   -0.5805   -0.0357 C   0  0  0  0  0  0  0  0  0  0  0  0
   -4.8797   -0.3652    0.2875 H   0  0  0  0  0  0  0  0  0  0  0  0
   -4.0671    1.0072   -0.9144 H   0  0  0  0  0  0  0  0  0  0  0  0
   -3.7107    0.8174    0.8672 H   0  0  0  0  0  0  0  0  0  0  0  0
   -1.4128    0.2035   -0.0149 C   0  0  0  0  0  0  0  0  0  0  0  0
   -2.7793   -1.2806   -0.9076 H   0  0  0  0  0  0  0  0  0  0  0  0
   -2.7034   -1.2375    0.9162 H   0  0  0  0  0  0  0  0  0  0  0  0
   -0.1575   -0.7171    0.0835 C   0  0  0  0  0  0  0  0  0  0  0  0
   -1.5076    0.9337    0.8423 H   0  0  0  0  0  0  0  0  0  0  0  0
   -1.4362    0.7923   -0.8861 H   0  0  0  0  0  0  0  0  0  0  0  0
   -0.1589   -1.3473    0.9473 H   0  0  0  0  0  0  0  0  0  0  0  0
    0.7620   -0.0894    0.0057 H   0  0  0  0  0  0  0  0  0  0  0  0
   -0.1250   -1.3906   -0.7824 H   0  0  0  0  0  0  0  0  0  0  0  0
  1  3  1  0  0  0  0
  1  5  1  0  0  0  0
  2  6  1  0  0  0  0
  2  1  1  0  0  0  0
  2  8  1  0  0  0  0
  4  1  1  0  0  0  0
  6  9  1  0  0  0  0
  6 10  1  0  0  0  0
  7  2  1  0  0  0  0
  9 12  1  0  0  0  0
 11  6  1  0  0  0  0
 13  9  1  0  0  0  0
 14  9  1  0  0  0  0
M  END
$$$$
