14
butane_opt
C  -3.939355   0.241918  -0.024398
C  -2.733904  -0.588745   0.055720
H  -4.850932  -0.389090   0.165086
H  -4.011215   0.964829  -0.970695
H  -3.955528   0.849797   0.769978
C  -1.396927   0.209874   0.060279
H  -2.647599  -1.236561  -0.766065
H  -2.823875  -1.221460   1.003466
C  -0.127586  -0.730385  -0.005395
H  -1.351870   0.968417   0.985657
H  -1.453877   0.745769  -0.762799
H  -0.056048  -1.293111   0.895359
H   0.739575  -0.144715  -0.105520
H  -0.210819  -1.317809  -0.807294
