butane_opt
 OpenBabel08242015413D

 14 13  0  0  0  0  0  0  0  0999 V2000
   -3.9405    0.2555    0.0234 C   0  0  0  0  0  0  0  0  0  0  0  0
   -2.6914   -0.6106    0.0285 C   0  0  0  0  0  0  0  0  0  0  0  0
   -4.8524   -0.3737   -0.0172 H   0  0  0  0  0  0  0  0  0  0  0  0
   -3.8710    0.7200   -0.8152 H   0  0  0  0  0  0  0  0  0  0  0  0
   -3.9025    1.0256    0.9502 H   0  0  0  0  0  0  0  0  0  0  0  0
   -1.4084    0.2137    0.0185 C   0  0  0  0  0  0  0  0  0  0  0  0
   -2.7096   -1.3246   -0.8565 H   0  0  0  0  0  0  0  0  0  0  0  0
   -2.7554   -1.1386    0.8415 H   0  0  0  0  0  0  0  0  0  0  0  0
   -0.1678   -0.7109    0.0445 C   0  0  0  0  0  0  0  0  0  0  0  0
   -1.4724    0.8435    0.8132 H   0  0  0  0  0  0  0  0  0  0  0  0
   -1.3542    0.8548   -0.9501 H   0  0  0  0  0  0  0  0  0  0  0  0
   -0.0090   -1.4777    1.0201 H   0  0  0  0  0  0  0  0  0  0  0  0
    0.6774   -0.1559   -0.1800 H   0  0  0  0  0  0  0  0  0  0  0  0
   -0.2751   -1.2185   -0.7085 H   0  0  0  0  0  0  0  0  0  0  0  0
  1  2  1  0  0  0  0
  1  5  1  0  0  0  0
  2  8  1  0  0  0  0
  3  1  1  0  0  0  0
  4  1  1  0  0  0  0
  6  2  1  0  0  0  0
  6  9  1  0  0  0  0
  6 10  1  0  0  0  0
  7  2  1  0  0  0  0
  9 12  1  0  0  0  0
 11  6  1  0  0  0  0
 13  9  1  0  0  0  0
 14  9  1  0  0  0  0
M  END
$$$$
