14
butane_opt
C  -3.959359   0.264230   0.070421
C  -2.713899  -0.605669  -0.063456
H  -4.896573  -0.390634   0.354134
H  -4.117646   0.909459  -0.810394
H  -3.804481   0.903130   0.910085
C  -1.382610   0.190950  -0.032180
H  -2.722041  -1.305262  -0.934486
H  -2.736637  -1.232301   0.841615
C  -0.141475  -0.702670   0.089657
H  -1.425051   0.829140   0.847234
H  -1.391615   0.864127  -0.938179
H  -0.189631  -1.361844   1.038770
H   0.733773  -0.169693   0.045850
H  -0.094156  -1.280602  -0.676488
