butane_opt
 OpenBabel08242015413D

 14 13  0  0  0  0  0  0  0  0999 V2000
   -3.9524    0.2493    0.0598 C   0  0  0  0  0  0  0  0  0  0  0  0
   -2.7207   -0.5969   -0.0134 C   0  0  0  0  0  0  0  0  0  0  0  0
   -4.8932   -0.3382   -0.0258 H   0  0  0  0  0  0  0  0  0  0  0  0
   -3.9780    0.8438   -0.8086 H   0  0  0  0  0  0  0  0  0  0  0  0
   -3.9844    1.0271    0.9674 H   0  0  0  0  0  0  0  0  0  0  0  0
   -1.4034    0.1866   -0.0196 C   0  0  0  0  0  0  0  0  0  0  0  0
   -2.8506   -1.3200   -0.8924 H   0  0  0  0  0  0  0  0  0  0  0  0
   -2.6721   -1.2560    0.8960 H   0  0  0  0  0  0  0  0  0  0  0  0
   -0.1176   -0.6937    0.0600 C   0  0  0  0  0  0  0  0  0  0  0  0
   -1.4442    0.9138    0.8435 H   0  0  0  0  0  0  0  0  0  0  0  0
   -1.4182    0.7884   -0.8896 H   0  0  0  0  0  0  0  0  0  0  0  0
   -0.1023   -1.5393    1.1212 H   0  0  0  0  0  0  0  0  0  0  0  0
    0.7860   -0.1426   -0.0625 H   0  0  0  0  0  0  0  0  0  0  0  0
   -0.1332   -1.1942   -0.7300 H   0  0  0  0  0  0  0  0  0  0  0  0
  1  5  1  0  0  0  0
  2  1  1  0  0  0  0
  2  8  1  0  0  0  0
  3  1  1  0  0  0  0
  4  1  1  0  0  0  0
  6  2  1  0  0  0  0
  6  9  1  0  0  0  0
  6 10  1  0  0  0  0
  7  2  1  0  0  0  0
  9 12  1  0  0  0  0
 11  6  1  0  0  0  0
 13  9  1  0  0  0  0
 14  9  1  0  0  0  0
M  END
$$$$
