14
butane_opt
C  -3.922619   0.277000  -0.015209
C  -2.686354  -0.634512   0.056850
H  -4.807674  -0.283070  -0.002712
H  -3.921727   0.903202  -0.907096
H  -4.057420   1.061911   0.945160
C  -1.411946   0.160605   0.046908
H  -2.717870  -1.356717  -0.800061
H  -2.722189  -1.272761   0.940128
C  -0.195252  -0.679643  -0.002031
H  -1.292839   0.878226   0.968950
H  -1.407257   0.773917  -0.799954
H  -0.116539  -1.443477   0.983581
H   0.809326  -0.032026  -0.164551
H  -0.206778  -1.157040  -0.735570
