butane_opt
 OpenBabel08242015413D

 14 13  0  0  0  0  0  0  0  0999 V2000
   -3.9524    0.2724   -0.0278 C   0  0  0  0  0  0  0  0  0  0  0  0
   -2.6941   -0.6349    0.0571 C   0  0  0  0  0  0  0  0  0  0  0  0
   -4.7855   -0.2065    0.3413 H   0  0  0  0  0  0  0  0  0  0  0  0
   -4.1585    1.0606   -1.0293 H   0  0  0  0  0  0  0  0  0  0  0  0
   -3.9607    0.7491    0.7098 H   0  0  0  0  0  0  0  0  0  0  0  0
   -1.3927    0.1690    0.0580 C   0  0  0  0  0  0  0  0  0  0  0  0
   -2.6227   -1.3018   -0.7585 H   0  0  0  0  0  0  0  0  0  0  0  0
   -2.7369   -1.3089    0.9676 H   0  0  0  0  0  0  0  0  0  0  0  0
   -0.1721   -0.6808    0.0003 C   0  0  0  0  0  0  0  0  0  0  0  0
   -1.4078    0.9462    0.9786 H   0  0  0  0  0  0  0  0  0  0  0  0
   -1.3732    0.7375   -0.7642 H   0  0  0  0  0  0  0  0  0  0  0  0
   -0.1345   -1.2077    0.8228 H   0  0  0  0  0  0  0  0  0  0  0  0
    0.7977   -0.0111    0.0517 H   0  0  0  0  0  0  0  0  0  0  0  0
   -0.1204   -1.4196   -0.9581 H   0  0  0  0  0  0  0  0  0  0  0  0
  1  2  1  0  0  0  0
  1  3  1  0  0  0  0
  1  5  1  0  0  0  0
  2  6  1  0  0  0  0
  2  8  1  0  0  0  0
  4  1  1  0  0  0  0
  6 10  1  0  0  0  0
  7  2  1  0  0  0  0
  9 13  1  0  0  0  0
  9  6  1  0  0  0  0
  9 12  1  0  0  0  0
 11  6  1  0  0  0  0
 14  9  1  0  0  0  0
M  END
$$$$
