14
butane_opt
C  -3.941433   0.282394  -0.033012
C  -2.684747  -0.609905   0.095803
H  -4.792612  -0.300632   0.097875
H  -4.029926   0.967571  -0.995064
H  -3.967783   0.862337   0.764626
C  -1.388425   0.145814   0.035911
H  -2.700103  -1.249089  -0.697017
H  -2.750577  -1.396959   1.078847
C  -0.187650  -0.682109  -0.001515
H  -1.359644   0.842005   0.929143
H  -1.479368   0.754769  -0.799783
H  -0.255609  -0.991437   0.719325
H   0.828542  -0.005574   0.165249
H  -0.104989  -1.565424  -1.030603
