butane_opt
 OpenBabel08242015413D

 14 13  0  0  0  0  0  0  0  0999 V2000
   -3.9181    0.2368    0.0213 C   0  0  0  0  0  0  0  0  0  0  0  0
   -2.7108   -0.5898    0.0211 C   0  0  0  0  0  0  0  0  0  0  0  0
   -4.8470   -0.3634   -0.0489 H   0  0  0  0  0  0  0  0  0  0  0  0
   -3.9012    0.7736   -0.8442 H   0  0  0  0  0  0  0  0  0  0  0  0
   -3.9313    1.0157    0.9130 H   0  0  0  0  0  0  0  0  0  0  0  0
   -1.4375    0.2096    0.0251 C   0  0  0  0  0  0  0  0  0  0  0  0
   -2.7054   -1.2646   -0.7836 H   0  0  0  0  0  0  0  0  0  0  0  0
   -2.7220   -1.2056    0.8901 H   0  0  0  0  0  0  0  0  0  0  0  0
   -0.1488   -0.7077    0.0299 C   0  0  0  0  0  0  0  0  0  0  0  0
   -1.4333    0.8866    0.8740 H   0  0  0  0  0  0  0  0  0  0  0  0
   -1.3811    0.7974   -0.8325 H   0  0  0  0  0  0  0  0  0  0  0  0
    0.0093   -1.5376    1.0915 H   0  0  0  0  0  0  0  0  0  0  0  0
    0.7211   -0.1578   -0.1840 H   0  0  0  0  0  0  0  0  0  0  0  0
   -0.2459   -1.2091   -0.7759 H   0  0  0  0  0  0  0  0  0  0  0  0
  1  5  1  0  0  0  0
  2  1  1  0  0  0  0
  2  6  1  0  0  0  0
  2  8  1  0  0  0  0
  3  1  1  0  0  0  0
  4  1  1  0  0  0  0
  6  9  1  0  0  0  0
  6 10  1  0  0  0  0
  7  2  1  0  0  0  0
  9 12  1  0  0  0  0
 11  6  1  0  0  0  0
 13  9  1  0  0  0  0
 14  9  1  0  0  0  0
M  END
$$$$
