butane_opt
 OpenBabel08242015413D

 14 13  0  0  0  0  0  0  0  0999 V2000
   -3.9316    0.2668    0.0446 C   0  0  0  0  0  0  0  0  0  0  0  0
   -2.6914   -0.6274    0.0166 C   0  0  0  0  0  0  0  0  0  0  0  0
   -4.7835   -0.2505   -0.0880 H   0  0  0  0  0  0  0  0  0  0  0  0
   -3.9544    0.8107   -0.8215 H   0  0  0  0  0  0  0  0  0  0  0  0
   -4.0283    1.1042    0.9895 H   0  0  0  0  0  0  0  0  0  0  0  0
   -1.3991    0.1741   -0.0010 C   0  0  0  0  0  0  0  0  0  0  0  0
   -2.7446   -1.3180   -0.8755 H   0  0  0  0  0  0  0  0  0  0  0  0
   -2.6110   -1.2616    0.8831 H   0  0  0  0  0  0  0  0  0  0  0  0
   -0.1922   -0.6792    0.0599 C   0  0  0  0  0  0  0  0  0  0  0  0
   -1.4273    0.7006    0.7670 H   0  0  0  0  0  0  0  0  0  0  0  0
   -1.3158    0.8556   -0.9734 H   0  0  0  0  0  0  0  0  0  0  0  0
   -0.1567   -1.3365    0.9785 H   0  0  0  0  0  0  0  0  0  0  0  0
    0.7728   -0.0623   -0.0800 H   0  0  0  0  0  0  0  0  0  0  0  0
   -0.2076   -1.3072   -0.7738 H   0  0  0  0  0  0  0  0  0  0  0  0
  1  5  1  0  0  0  0
  2  1  1  0  0  0  0
  2  8  1  0  0  0  0
  3  1  1  0  0  0  0
  4  1  1  0  0  0  0
  6  2  1  0  0  0  0
  6  9  1  0  0  0  0
  6 10  1  0  0  0  0
  7  2  1  0  0  0  0
  9 12  1  0  0  0  0
 11  6  1  0  0  0  0
 13  9  1  0  0  0  0
 14  9  1  0  0  0  0
M  END
$$$$
