14
butane_opt
C  -3.948583   0.277096   0.049952
C  -2.692936  -0.624719   0.007697
H  -4.862713  -0.344092   0.034877
H  -3.985205   0.844173  -0.803147
H  -3.935550   1.012556   0.938257
C  -1.401401   0.161865  -0.026894
H  -2.693643  -1.260105  -0.834512
H  -2.711083  -1.282244   0.904671
C  -0.169435  -0.680626   0.064603
H  -1.429270   0.832946   0.824039
H  -1.354339   0.835494  -0.972408
H  -0.204806  -1.280907   0.960304
H   0.762192  -0.046916   0.063947
H  -0.073774  -1.385785  -0.819514
