14
butane_opt
C  -3.967483   0.286183  -0.015495
C  -2.696017  -0.658629   0.085768
H  -4.867933  -0.230956   0.051321
H  -3.942552   1.081815  -1.023602
H  -4.045694   0.767797   0.732124
C  -1.388100   0.194627   0.046839
H  -2.703292  -1.283880  -0.695048
H  -2.705777  -1.295571   1.023058
C  -0.161293  -0.678173  -0.003393
H  -1.267270   0.810843   0.918700
H  -1.347650   0.751295  -0.821720
H  -0.203872  -1.096290   0.765607
H   0.740229  -0.091021   0.135413
H  -0.133208  -1.610359  -1.060100
