14
butane_opt
C  -3.917832   0.276270  -0.012686
C  -2.683175  -0.632775   0.067469
H  -4.862362  -0.327400   0.228663
H  -4.044225   1.187492  -1.054118
H  -3.962527   0.772976   0.699192
C  -1.410828   0.157057   0.040428
H  -2.669687  -1.289354  -0.775568
H  -2.751732  -1.288981   0.970708
C  -0.191920  -0.675953  -0.009001
H  -1.316438   0.982763   0.988346
H  -1.352948   0.687600  -0.744708
H  -0.151662  -1.176414   0.828914
H   0.728191  -0.078765   0.134664
H  -0.188484  -1.439917  -0.898954
