14
butane_opt
C  -3.942645   0.276178   0.022742
C  -2.695791  -0.627891   0.033502
H  -4.869449  -0.277400   0.228894
H  -4.039125   1.094770  -1.024928
H  -3.954493   0.783591   0.762120
C  -1.393208   0.159099   0.007854
H  -2.705797  -1.331617  -0.811665
H  -2.611032  -1.201089   0.858217
C  -0.164933  -0.682578   0.033346
H  -1.352504   0.862448   0.920792
H  -1.418890   0.742327  -0.827280
H  -0.247237  -1.190614   0.879613
H   0.785603  -0.040914   0.126105
H  -0.244965  -1.405288  -0.865366
