butane_opt
 OpenBabel08242015413D

 14 13  0  0  0  0  0  0  0  0999 V2000
   -3.9426    0.2762    0.0227 C   0  0  0  0  0  0  0  0  0  0  0  0
   -2.6958   -0.6279    0.0335 C   0  0  0  0  0  0  0  0  0  0  0  0
   -4.8694   -0.2774    0.2289 H   0  0  0  0  0  0  0  0  0  0  0  0
   -4.0391    1.0948   -1.0249 H   0  0  0  0  0  0  0  0  0  0  0  0
   -3.9545    0.7836    0.7621 H   0  0  0  0  0  0  0  0  0  0  0  0
   -1.3932    0.1591    0.0079 C   0  0  0  0  0  0  0  0  0  0  0  0
   -2.7058   -1.3316   -0.8117 H   0  0  0  0  0  0  0  0  0  0  0  0
   -2.6110   -1.2011    0.8582 H   0  0  0  0  0  0  0  0  0  0  0  0
   -0.1649   -0.6826    0.0333 C   0  0  0  0  0  0  0  0  0  0  0  0
   -1.3525    0.8624    0.9208 H   0  0  0  0  0  0  0  0  0  0  0  0
   -1.4189    0.7423   -0.8273 H   0  0  0  0  0  0  0  0  0  0  0  0
   -0.2472   -1.1906    0.8796 H   0  0  0  0  0  0  0  0  0  0  0  0
    0.7856   -0.0409    0.1261 H   0  0  0  0  0  0  0  0  0  0  0  0
   -0.2450   -1.4053   -0.8654 H   0  0  0  0  0  0  0  0  0  0  0  0
  1  2  1  0  0  0  0
  1  3  1  0  0  0  0
  1  5  1  0  0  0  0
  2  8  1  0  0  0  0
  4  1  1  0  0  0  0
  6  9  1  0  0  0  0
  6  2  1  0  0  0  0
  6 10  1  0  0  0  0
  7  2  1  0  0  0  0
  9 13  1  0  0  0  0
  9 12  1  0  0  0  0
 11  6  1  0  0  0  0
 14  9  1  0  0  0  0
M  END
$$$$
