14
butane_opt
C  -3.918113   0.236768   0.021334
C  -2.710774  -0.589828   0.021131
H  -4.846976  -0.363384  -0.048869
H  -3.901227   0.773554  -0.844203
H  -3.931348   1.015722   0.912996
C  -1.437501   0.209627   0.025106
H  -2.705368  -1.264627  -0.783592
H  -2.721965  -1.205646   0.890126
C  -0.148789  -0.707730   0.029858
H  -1.433277   0.886625   0.873975
H  -1.381094   0.797377  -0.832454
H   0.009322  -1.537639   1.091504
H   0.721146  -0.157782  -0.183983
H  -0.245910  -1.209131  -0.775895
