butane_opt
 OpenBabel08242015413D

 14 13  0  0  0  0  0  0  0  0999 V2000
   -3.9511    0.2751   -0.0084 C   0  0  0  0  0  0  0  0  0  0  0  0
   -2.7018   -0.6368    0.0616 C   0  0  0  0  0  0  0  0  0  0  0  0
   -4.8502   -0.2650   -0.0287 H   0  0  0  0  0  0  0  0  0  0  0  0
   -3.9865    0.9247   -0.9291 H   0  0  0  0  0  0  0  0  0  0  0  0
   -3.9792    0.9492    0.8552 H   0  0  0  0  0  0  0  0  0  0  0  0
   -1.3974    0.1831    0.0470 C   0  0  0  0  0  0  0  0  0  0  0  0
   -2.7205   -1.2846   -0.7546 H   0  0  0  0  0  0  0  0  0  0  0  0
   -2.7781   -1.3030    0.9696 H   0  0  0  0  0  0  0  0  0  0  0  0
   -0.1550   -0.6851    0.0007 C   0  0  0  0  0  0  0  0  0  0  0  0
   -1.3268    0.8774    0.9104 H   0  0  0  0  0  0  0  0  0  0  0  0
   -1.4248    0.7460   -0.8087 H   0  0  0  0  0  0  0  0  0  0  0  0
   -0.1104   -1.3410    0.9206 H   0  0  0  0  0  0  0  0  0  0  0  0
    0.7662   -0.0818   -0.0571 H   0  0  0  0  0  0  0  0  0  0  0  0
   -0.1627   -1.3171   -0.8476 H   0  0  0  0  0  0  0  0  0  0  0  0
  1  2  1  0  0  0  0
  1  5  1  0  0  0  0
  2  8  1  0  0  0  0
  3  1  1  0  0  0  0
  4  1  1  0  0  0  0
  6  2  1  0  0  0  0
  6 10  1  0  0  0  0
  7  2  1  0  0  0  0
  9  6  1  0  0  0  0
  9 12  1  0  0  0  0
 11  6  1  0  0  0  0
 13  9  1  0  0  0  0
 14  9  1  0  0  0  0
M  END
$$$$
