14
butane_opt
C  -3.938844   0.239339   0.041611
C  -2.722015  -0.586763   0.034701
H  -4.827663  -0.391730  -0.209623
H  -3.874029   0.643193  -0.724223
H  -4.086078   1.100966   1.012929
C  -1.400685   0.214501  -0.019621
H  -2.732763  -1.299293  -0.831857
H  -2.701739  -1.190107   0.922085
C  -0.158827  -0.720407   0.058712
H  -1.319362   0.817223   0.802836
H  -1.433711   0.992714  -1.024096
H  -0.090085  -1.409428   0.974964
H   0.721195  -0.161997  -0.054905
H  -0.023063  -1.348832  -0.784061
