14
butane_opt
C  -3.952587   0.275343   0.018502
C  -2.689310  -0.631970   0.039977
H  -4.792012  -0.235797  -0.082818
H  -3.886663   0.776935  -0.742993
H  -4.044621   1.133986   0.981277
C  -1.393781   0.159818   0.009649
H  -2.677888  -1.367857  -0.860226
H  -2.766102  -1.237173   0.879380
C  -0.180081  -0.671178   0.047023
H  -1.348585   0.761343   0.784203
H  -1.373656   0.861276  -0.932403
H  -0.102274  -1.426624   1.013590
H   0.774625  -0.042380  -0.149588
H  -0.238171  -1.265813  -0.792076
