14
butane_opt
C  -3.936973   0.247528   0.041186
C  -2.708294  -0.609705   0.025794
H  -4.879797  -0.384649   0.087226
H  -4.065322   0.840987  -0.843012
H  -3.829405   0.962392   0.942128
C  -1.418001   0.225591  -0.047942
H  -2.784767  -1.255725  -0.869781
H  -2.633398  -1.328936   0.961916
C  -0.154531  -0.712190   0.064224
H  -1.430697   0.876919   0.784824
H  -1.375615   0.882607  -0.954331
H  -0.186109  -1.198172   0.919736
H   0.733550  -0.150485   0.288910
H   0.050177  -1.545343  -0.898164
