butane_opt
 OpenBabel08242015413D

 14 13  0  0  0  0  0  0  0  0999 V2000
   -3.9370    0.2475    0.0412 C   0  0  0  0  0  0  0  0  0  0  0  0
   -2.7083   -0.6097    0.0258 C   0  0  0  0  0  0  0  0  0  0  0  0
   -4.8798   -0.3846    0.0872 H   0  0  0  0  0  0  0  0  0  0  0  0
   -4.0653    0.8410   -0.8430 H   0  0  0  0  0  0  0  0  0  0  0  0
   -3.8294    0.9624    0.9421 H   0  0  0  0  0  0  0  0  0  0  0  0
   -1.4180    0.2256   -0.0479 C   0  0  0  0  0  0  0  0  0  0  0  0
   -2.7848   -1.2557   -0.8698 H   0  0  0  0  0  0  0  0  0  0  0  0
   -2.6334   -1.3289    0.9619 H   0  0  0  0  0  0  0  0  0  0  0  0
   -0.1545   -0.7122    0.0642 C   0  0  0  0  0  0  0  0  0  0  0  0
   -1.4307    0.8769    0.7848 H   0  0  0  0  0  0  0  0  0  0  0  0
   -1.3756    0.8826   -0.9543 H   0  0  0  0  0  0  0  0  0  0  0  0
   -0.1861   -1.1982    0.9197 H   0  0  0  0  0  0  0  0  0  0  0  0
    0.7336   -0.1505    0.2889 H   0  0  0  0  0  0  0  0  0  0  0  0
    0.0502   -1.5453   -0.8982 H   0  0  0  0  0  0  0  0  0  0  0  0
  1  3  1  0  0  0  0
  1  5  1  0  0  0  0
  2  1  1  0  0  0  0
  2  8  1  0  0  0  0
  4  1  1  0  0  0  0
  6  2  1  0  0  0  0
  6  9  1  0  0  0  0
  6 10  1  0  0  0  0
  7  2  1  0  0  0  0
  9 13  1  0  0  0  0
  9 12  1  0  0  0  0
 11  6  1  0  0  0  0
 14  9  1  0  0  0  0
M  END
$$$$
