butane_opt
 OpenBabel08242015413D

 14 13  0  0  0  0  0  0  0  0999 V2000
   -3.9398    0.2506   -0.0108 C   0  0  0  0  0  0  0  0  0  0  0  0
   -2.6895   -0.5976    0.0355 C   0  0  0  0  0  0  0  0  0  0  0  0
   -4.8621   -0.4166    0.0483 H   0  0  0  0  0  0  0  0  0  0  0  0
   -3.9681    0.8323   -0.8726 H   0  0  0  0  0  0  0  0  0  0  0  0
   -3.9305    0.9920    0.8935 H   0  0  0  0  0  0  0  0  0  0  0  0
   -1.4248    0.2020    0.0503 C   0  0  0  0  0  0  0  0  0  0  0  0
   -2.7310   -1.2192   -0.7375 H   0  0  0  0  0  0  0  0  0  0  0  0
   -2.7547   -1.2611    0.9758 H   0  0  0  0  0  0  0  0  0  0  0  0
   -0.1372   -0.7076    0.0140 C   0  0  0  0  0  0  0  0  0  0  0  0
   -1.4073    0.8547    0.8936 H   0  0  0  0  0  0  0  0  0  0  0  0
   -1.4699    0.7641   -0.8181 H   0  0  0  0  0  0  0  0  0  0  0  0
   -0.1475   -1.4101    0.9519 H   0  0  0  0  0  0  0  0  0  0  0  0
    0.7834   -0.1059   -0.1292 H   0  0  0  0  0  0  0  0  0  0  0  0
   -0.2274   -1.2674   -0.8213 H   0  0  0  0  0  0  0  0  0  0  0  0
  1  2  1  0  0  0  0
  1  3  1  0  0  0  0
  1  5  1  0  0  0  0
  2  6  1  0  0  0  0
  2  8  1  0  0  0  0
  4  1  1  0  0  0  0
  6 10  1  0  0  0  0
  7  2  1  0  0  0  0
  9  6  1  0  0  0  0
  9 12  1  0  0  0  0
 11  6  1  0  0  0  0
 13  9  1  0  0  0  0
 14  9  1  0  0  0  0
M  END
$$$$
