14
butane_opt
C  -3.930354   0.276445   0.047151
C  -2.682467  -0.640586   0.015705
H  -4.819603  -0.259359   0.064710
H  -3.982574   0.980341  -0.855323
H  -3.924153   0.978051   0.960666
C  -1.413777   0.158130  -0.040799
H  -2.736574  -1.242045  -0.800156
H  -2.704376  -1.353499   0.945734
C  -0.189380  -0.670730   0.065828
H  -1.413110   0.829742   0.846578
H  -1.296268   0.809738  -0.984040
H  -0.278918  -1.129133   0.851440
H   0.748113  -0.032338   0.206533
H  -0.043356  -1.522143  -0.881283
