14
butane_opt
C  -3.943743   0.262543  -0.005510
C  -2.681392  -0.632580   0.093054
H  -4.832035  -0.324716  -0.168121
H  -3.855866   0.874121  -0.885674
H  -4.086109   1.032563   0.888631
C  -1.407545   0.192566   0.023713
H  -2.605643  -1.283065  -0.723296
H  -2.666138  -1.308863   0.974809
C  -0.180343  -0.683371  -0.009046
H  -1.279019   0.828482   0.881195
H  -1.477785   0.832655  -0.856874
H  -0.204760  -1.262322   0.878649
H   0.740167  -0.125533   0.124033
H  -0.190447  -1.407310  -0.885975
