14
butane_opt
C  -3.939041   0.271752   0.047803
C  -2.689252  -0.621818   0.009540
H  -4.867891  -0.331864   0.103335
H  -4.014113   0.864048  -0.813811
H  -3.966535   0.976438   0.935760
C  -1.402202   0.170319  -0.028270
H  -2.694135  -1.331423  -0.832595
H  -2.706270  -1.218314   0.887245
C  -0.166478  -0.689599   0.062852
H  -1.452615   0.777459   0.767956
H  -1.398588   0.881544  -0.975911
H  -0.246610  -1.211347   0.915916
H   0.795954  -0.075716   0.167421
H  -0.107040  -1.369679  -0.814969
