butane_opt
 OpenBabel08242015413D

 14 13  0  0  0  0  0  0  0  0999 V2000
   -3.9295    0.2709    0.0424 C   0  0  0  0  0  0  0  0  0  0  0  0
   -2.6879   -0.6403    0.0472 C   0  0  0  0  0  0  0  0  0  0  0  0
   -4.8380   -0.3221   -0.2309 H   0  0  0  0  0  0  0  0  0  0  0  0
   -3.9470    0.7612   -0.7749 H   0  0  0  0  0  0  0  0  0  0  0  0
   -4.1162    1.0814    0.9825 H   0  0  0  0  0  0  0  0  0  0  0  0
   -1.4030    0.1749   -0.0273 C   0  0  0  0  0  0  0  0  0  0  0  0
   -2.7954   -1.2845   -0.8186 H   0  0  0  0  0  0  0  0  0  0  0  0
   -2.5897   -1.2004    0.9195 H   0  0  0  0  0  0  0  0  0  0  0  0
   -0.1754   -0.6800    0.0507 C   0  0  0  0  0  0  0  0  0  0  0  0
   -1.4341    0.8205    0.8001 H   0  0  0  0  0  0  0  0  0  0  0  0
   -1.4205    0.8916   -0.9641 H   0  0  0  0  0  0  0  0  0  0  0  0
   -0.1747   -1.3380    0.9805 H   0  0  0  0  0  0  0  0  0  0  0  0
    0.7340   -0.0654    0.0440 H   0  0  0  0  0  0  0  0  0  0  0  0
   -0.0911   -1.3404   -0.8521 H   0  0  0  0  0  0  0  0  0  0  0  0
  1  2  1  0  0  0  0
  1  5  1  0  0  0  0
  2  8  1  0  0  0  0
  3  1  1  0  0  0  0
  4  1  1  0  0  0  0
  6  2  1  0  0  0  0
  6  9  1  0  0  0  0
  6 10  1  0  0  0  0
  7  2  1  0  0  0  0
  9 12  1  0  0  0  0
 11  6  1  0  0  0  0
 13  9  1  0  0  0  0
 14  9  1  0  0  0  0
M  END
$$$$
