butane_opt
 OpenBabel08242015413D

 14 13  0  0  0  0  0  0  0  0999 V2000
   -3.9650    0.2946    0.0628 C   0  0  0  0  0  0  0  0  0  0  0  0
   -2.6982   -0.6557   -0.0007 C   0  0  0  0  0  0  0  0  0  0  0  0
   -4.8039   -0.2930    0.0582 H   0  0  0  0  0  0  0  0  0  0  0  0
   -3.9734    0.8349   -0.7536 H   0  0  0  0  0  0  0  0  0  0  0  0
   -4.0497    0.9890    0.9532 H   0  0  0  0  0  0  0  0  0  0  0  0
   -1.3880    0.1596   -0.0431 C   0  0  0  0  0  0  0  0  0  0  0  0
   -2.8173   -1.3076   -0.8713 H   0  0  0  0  0  0  0  0  0  0  0  0
   -2.5943   -1.2049    0.8564 H   0  0  0  0  0  0  0  0  0  0  0  0
   -0.1606   -0.6762    0.0712 C   0  0  0  0  0  0  0  0  0  0  0  0
   -1.4506    0.8037    0.7513 H   0  0  0  0  0  0  0  0  0  0  0  0
   -1.3800    0.8565   -1.0087 H   0  0  0  0  0  0  0  0  0  0  0  0
   -0.2274   -1.2625    0.9669 H   0  0  0  0  0  0  0  0  0  0  0  0
    0.8242   -0.0079    0.1673 H   0  0  0  0  0  0  0  0  0  0  0  0
   -0.0335   -1.3381   -0.7581 H   0  0  0  0  0  0  0  0  0  0  0  0
  1  5  1  0  0  0  0
  2  1  1  0  0  0  0
  2  8  1  0  0  0  0
  3  1  1  0  0  0  0
  4  1  1  0  0  0  0
  6  2  1  0  0  0  0
  6  9  1  0  0  0  0
  6 10  1  0  0  0  0
  7  2  1  0  0  0  0
  9 13  1  0  0  0  0
  9 12  1  0  0  0  0
 11  6  1  0  0  0  0
 14  9  1  0  0  0  0
M  END
$$$$
