butane_opt
 OpenBabel08242015413D

 14 13  0  0  0  0  0  0  0  0999 V2000
   -3.9437    0.2625   -0.0055 C   0  0  0  0  0  0  0  0  0  0  0  0
   -2.6814   -0.6326    0.0931 C   0  0  0  0  0  0  0  0  0  0  0  0
   -4.8320   -0.3247   -0.1681 H   0  0  0  0  0  0  0  0  0  0  0  0
   -3.8559    0.8741   -0.8857 H   0  0  0  0  0  0  0  0  0  0  0  0
   -4.0861    1.0326    0.8886 H   0  0  0  0  0  0  0  0  0  0  0  0
   -1.4075    0.1926    0.0237 C   0  0  0  0  0  0  0  0  0  0  0  0
   -2.6056   -1.2831   -0.7233 H   0  0  0  0  0  0  0  0  0  0  0  0
   -2.6661   -1.3089    0.9748 H   0  0  0  0  0  0  0  0  0  0  0  0
   -0.1803   -0.6834   -0.0090 C   0  0  0  0  0  0  0  0  0  0  0  0
   -1.2790    0.8285    0.8812 H   0  0  0  0  0  0  0  0  0  0  0  0
   -1.4778    0.8327   -0.8569 H   0  0  0  0  0  0  0  0  0  0  0  0
   -0.2048   -1.2623    0.8786 H   0  0  0  0  0  0  0  0  0  0  0  0
    0.7402   -0.1255    0.1240 H   0  0  0  0  0  0  0  0  0  0  0  0
   -0.1904   -1.4073   -0.8860 H   0  0  0  0  0  0  0  0  0  0  0  0
  1  2  1  0  0  0  0
  1  5  1  0  0  0  0
  2  8  1  0  0  0  0
  3  1  1  0  0  0  0
  4  1  1  0  0  0  0
  6  2  1  0  0  0  0
  6 10  1  0  0  0  0
  7  2  1  0  0  0  0
  9  6  1  0  0  0  0
  9 13  1  0  0  0  0
  9 12  1  0  0  0  0
 11  6  1  0  0  0  0
 14  9  1  0  0  0  0
M  END
$$$$
