14
butane_opt
C  -3.964971   0.294566   0.062811
C  -2.698245  -0.655684  -0.000748
H  -4.803890  -0.292996   0.058191
H  -3.973439   0.834922  -0.753622
H  -4.049674   0.988956   0.953238
C  -1.388015   0.159639  -0.043092
H  -2.817330  -1.307621  -0.871299
H  -2.594312  -1.204942   0.856372
C  -0.160564  -0.676224   0.071164
H  -1.450573   0.803729   0.751290
H  -1.379972   0.856542  -1.008695
H  -0.227416  -1.262524   0.966922
H   0.824234  -0.007859   0.167251
H  -0.033472  -1.338124  -0.758060
