14
butane_opt
C  -3.940228   0.254526  -0.003984
C  -2.712821  -0.610834   0.057337
H  -4.832357  -0.368535   0.174075
H  -4.067338   0.887692  -0.912472
H  -3.904304   0.838133   0.834893
C  -1.414394   0.216944   0.008983
H  -2.662745  -1.217702  -0.784915
H  -2.730980  -1.333763   1.016612
C  -0.143986  -0.713507   0.022754
H  -1.414982   0.929272   0.880410
H  -1.419128   0.818377  -0.874660
H  -0.208382  -1.138552   0.807686
H   0.756614  -0.150341   0.199008
H   0.009055  -1.508494  -0.943470
