butane_opt
 OpenBabel08242015413D

 14 13  0  0  0  0  0  0  0  0999 V2000
   -3.9356    0.2583   -0.0235 C   0  0  0  0  0  0  0  0  0  0  0  0
   -2.7184   -0.6134    0.0992 C   0  0  0  0  0  0  0  0  0  0  0  0
   -4.8630   -0.3360    0.0223 H   0  0  0  0  0  0  0  0  0  0  0  0
   -3.8683    0.9591   -0.9883 H   0  0  0  0  0  0  0  0  0  0  0  0
   -4.0632    0.8917    0.8417 H   0  0  0  0  0  0  0  0  0  0  0  0
   -1.4124    0.1984    0.0174 C   0  0  0  0  0  0  0  0  0  0  0  0
   -2.7358   -1.2098   -0.6775 H   0  0  0  0  0  0  0  0  0  0  0  0
   -2.7987   -1.3404    1.0756 H   0  0  0  0  0  0  0  0  0  0  0  0
   -0.1437   -0.7153   -0.0055 C   0  0  0  0  0  0  0  0  0  0  0  0
   -1.3406    0.9661    0.9457 H   0  0  0  0  0  0  0  0  0  0  0  0
   -1.3719    0.7922   -0.7842 H   0  0  0  0  0  0  0  0  0  0  0  0
   -0.1554   -1.0982    0.7399 H   0  0  0  0  0  0  0  0  0  0  0  0
    0.7600   -0.0874    0.1742 H   0  0  0  0  0  0  0  0  0  0  0  0
   -0.0582   -1.5538   -0.9889 H   0  0  0  0  0  0  0  0  0  0  0  0
  1  3  1  0  0  0  0
  1  2  1  0  0  0  0
  1  5  1  0  0  0  0
  2  8  1  0  0  0  0
  4  1  1  0  0  0  0
  6  2  1  0  0  0  0
  6 10  1  0  0  0  0
  7  2  1  0  0  0  0
  9  6  1  0  0  0  0
  9 13  1  0  0  0  0
  9 12  1  0  0  0  0
 11  6  1  0  0  0  0
 14  9  1  0  0  0  0
M  END
$$$$
