butane_opt
 OpenBabel08242015413D

 14 13  0  0  0  0  0  0  0  0999 V2000
   -3.9525    0.2487    0.0512 C   0  0  0  0  0  0  0  0  0  0  0  0
   -2.7255   -0.5901    0.0208 C   0  0  0  0  0  0  0  0  0  0  0  0
   -4.9228   -0.4125   -0.1358 H   0  0  0  0  0  0  0  0  0  0  0  0
   -3.9392    0.6234   -0.6519 H   0  0  0  0  0  0  0  0  0  0  0  0
   -3.9943    1.1249    1.0482 H   0  0  0  0  0  0  0  0  0  0  0  0
   -1.4146    0.1979   -0.0372 C   0  0  0  0  0  0  0  0  0  0  0  0
   -2.7668   -1.2694   -0.8661 H   0  0  0  0  0  0  0  0  0  0  0  0
   -2.6595   -1.1697    0.8269 H   0  0  0  0  0  0  0  0  0  0  0  0
   -0.1285   -0.7099    0.0734 C   0  0  0  0  0  0  0  0  0  0  0  0
   -1.3642    0.7487    0.6996 H   0  0  0  0  0  0  0  0  0  0  0  0
   -1.3507    0.9877   -1.0356 H   0  0  0  0  0  0  0  0  0  0  0  0
   -0.1145   -1.3888    0.9943 H   0  0  0  0  0  0  0  0  0  0  0  0
    0.7485   -0.1868    0.0383 H   0  0  0  0  0  0  0  0  0  0  0  0
    0.0066   -1.3135   -0.7462 H   0  0  0  0  0  0  0  0  0  0  0  0
  1  5  1  0  0  0  0
  2  1  1  0  0  0  0
  2  8  1  0  0  0  0
  3  1  1  0  0  0  0
  4  1  1  0  0  0  0
  6  2  1  0  0  0  0
  6  9  1  0  0  0  0
  6 10  1  0  0  0  0
  7  2  1  0  0  0  0
  9 12  1  0  0  0  0
 11  6  1  0  0  0  0
 13  9  1  0  0  0  0
 14  9  1  0  0  0  0
M  END
$$$$
