14
butane_opt
C  -3.940941   0.258176   0.063847
C  -2.712921  -0.609316  -0.002909
H  -4.850081  -0.337770   0.103756
H  -3.997495   0.829496  -0.799287
H  -3.918182   0.937972   0.922386
C  -1.411351   0.186948  -0.045379
H  -2.762300  -1.282642  -0.854377
H  -2.631269  -1.242515   0.888747
C  -0.150751  -0.704705   0.086705
H  -1.456177   0.828413   0.719230
H  -1.392021   0.970724  -1.038754
H  -0.219676  -1.135497   0.871577
H   0.814202  -0.102391   0.195487
H  -0.018569  -1.517453  -0.812993
