14
butane_opt
C  -3.935571   0.258261  -0.023538
C  -2.718362  -0.613441   0.099235
H  -4.862957  -0.335981   0.022317
H  -3.868263   0.959070  -0.988332
H  -4.063187   0.891709   0.841701
C  -1.412434   0.198392   0.017434
H  -2.735785  -1.209848  -0.677528
H  -2.798736  -1.340440   1.075623
C  -0.143686  -0.715343  -0.005472
H  -1.340565   0.966083   0.945731
H  -1.371940   0.792249  -0.784177
H  -0.155446  -1.098182   0.739900
H   0.760022  -0.087354   0.174185
H  -0.058152  -1.553834  -0.988890
