butane_opt
 OpenBabel08242015413D

 14 13  0  0  0  0  0  0  0  0999 V2000
   -3.9402    0.2545   -0.0040 C   0  0  0  0  0  0  0  0  0  0  0  0
   -2.7128   -0.6108    0.0573 C   0  0  0  0  0  0  0  0  0  0  0  0
   -4.8324   -0.3685    0.1741 H   0  0  0  0  0  0  0  0  0  0  0  0
   -4.0673    0.8877   -0.9125 H   0  0  0  0  0  0  0  0  0  0  0  0
   -3.9043    0.8381    0.8349 H   0  0  0  0  0  0  0  0  0  0  0  0
   -1.4144    0.2169    0.0090 C   0  0  0  0  0  0  0  0  0  0  0  0
   -2.6627   -1.2177   -0.7849 H   0  0  0  0  0  0  0  0  0  0  0  0
   -2.7310   -1.3338    1.0166 H   0  0  0  0  0  0  0  0  0  0  0  0
   -0.1440   -0.7135    0.0228 C   0  0  0  0  0  0  0  0  0  0  0  0
   -1.4150    0.9293    0.8804 H   0  0  0  0  0  0  0  0  0  0  0  0
   -1.4191    0.8184   -0.8747 H   0  0  0  0  0  0  0  0  0  0  0  0
   -0.2084   -1.1386    0.8077 H   0  0  0  0  0  0  0  0  0  0  0  0
    0.7566   -0.1503    0.1990 H   0  0  0  0  0  0  0  0  0  0  0  0
    0.0091   -1.5085   -0.9435 H   0  0  0  0  0  0  0  0  0  0  0  0
  1  2  1  0  0  0  0
  1  3  1  0  0  0  0
  1  5  1  0  0  0  0
  2  8  1  0  0  0  0
  4  1  1  0  0  0  0
  6  9  1  0  0  0  0
  6  2  1  0  0  0  0
  6 10  1  0  0  0  0
  7  2  1  0  0  0  0
  9 13  1  0  0  0  0
  9 12  1  0  0  0  0
 11  6  1  0  0  0  0
 14  9  1  0  0  0  0
M  END
$$$$
