14
butane_opt
C  -3.923349   0.250393   0.024003
C  -2.707981  -0.601996   0.067214
H  -4.849768  -0.418294  -0.237198
H  -3.815404   0.690377  -0.789979
H  -4.057793   1.135286   0.971234
C  -1.426648   0.217003  -0.010035
H  -2.707188  -1.395174  -0.824514
H  -2.669804  -1.254742   0.952230
C  -0.156069  -0.701005   0.032284
H  -1.317759   0.830827   0.783437
H  -1.495870   0.902306  -0.933910
H  -0.094656  -1.418798   1.005375
H   0.709208  -0.166164   0.008968
H  -0.145325  -1.358373  -0.819385
