butane_opt
 OpenBabel08242015413D

 14 13  0  0  0  0  0  0  0  0999 V2000
   -3.9631    0.2825    0.0582 C   0  0  0  0  0  0  0  0  0  0  0  0
   -2.7069   -0.6255   -0.0323 C   0  0  0  0  0  0  0  0  0  0  0  0
   -4.8519   -0.2866    0.2076 H   0  0  0  0  0  0  0  0  0  0  0  0
   -4.1151    0.9028   -0.7758 H   0  0  0  0  0  0  0  0  0  0  0  0
   -3.8220    0.9616    0.9142 H   0  0  0  0  0  0  0  0  0  0  0  0
   -1.3911    0.1667   -0.0278 C   0  0  0  0  0  0  0  0  0  0  0  0
   -2.8376   -1.3566   -0.9243 H   0  0  0  0  0  0  0  0  0  0  0  0
   -2.7255   -1.2950    0.8654 H   0  0  0  0  0  0  0  0  0  0  0  0
   -0.1331   -0.6869    0.0831 C   0  0  0  0  0  0  0  0  0  0  0  0
   -1.4380    0.8546    0.7921 H   0  0  0  0  0  0  0  0  0  0  0  0
   -1.3315    0.8007   -0.9401 H   0  0  0  0  0  0  0  0  0  0  0  0
   -0.1919   -1.3615    1.0124 H   0  0  0  0  0  0  0  0  0  0  0  0
    0.7899   -0.0819    0.0565 H   0  0  0  0  0  0  0  0  0  0  0  0
   -0.1783   -1.2374   -0.7342 H   0  0  0  0  0  0  0  0  0  0  0  0
  1  3  1  0  0  0  0
  1  5  1  0  0  0  0
  2  6  1  0  0  0  0
  2  1  1  0  0  0  0
  2  8  1  0  0  0  0
  4  1  1  0  0  0  0
  6  9  1  0  0  0  0
  6 10  1  0  0  0  0
  7  2  1  0  0  0  0
  9 12  1  0  0  0  0
 11  6  1  0  0  0  0
 13  9  1  0  0  0  0
 14  9  1  0  0  0  0
M  END
$$$$
