butane_opt
 OpenBabel08242015413D

 14 13  0  0  0  0  0  0  0  0999 V2000
   -3.9399    0.2512    0.0005 C   0  0  0  0  0  0  0  0  0  0  0  0
   -2.7153   -0.6029    0.0648 C   0  0  0  0  0  0  0  0  0  0  0  0
   -4.8263   -0.3083    0.0645 H   0  0  0  0  0  0  0  0  0  0  0  0
   -3.9512    0.8947   -0.9168 H   0  0  0  0  0  0  0  0  0  0  0  0
   -3.9411    0.8782    0.8380 H   0  0  0  0  0  0  0  0  0  0  0  0
   -1.4110    0.2001    0.0083 C   0  0  0  0  0  0  0  0  0  0  0  0
   -2.7531   -1.2587   -0.7840 H   0  0  0  0  0  0  0  0  0  0  0  0
   -2.7608   -1.2705    1.0085 H   0  0  0  0  0  0  0  0  0  0  0  0
   -0.1488   -0.7052    0.0133 C   0  0  0  0  0  0  0  0  0  0  0  0
   -1.3920    0.9296    0.9063 H   0  0  0  0  0  0  0  0  0  0  0  0
   -1.3683    0.8038   -0.8495 H   0  0  0  0  0  0  0  0  0  0  0  0
   -0.1220   -1.2430    0.8636 H   0  0  0  0  0  0  0  0  0  0  0  0
    0.7492   -0.1506    0.1456 H   0  0  0  0  0  0  0  0  0  0  0  0
   -0.0781   -1.4678   -0.8923 H   0  0  0  0  0  0  0  0  0  0  0  0
  1  3  1  0  0  0  0
  1  2  1  0  0  0  0
  1  5  1  0  0  0  0
  2  8  1  0  0  0  0
  4  1  1  0  0  0  0
  6  9  1  0  0  0  0
  6  2  1  0  0  0  0
  6 10  1  0  0  0  0
  7  2  1  0  0  0  0
  9 13  1  0  0  0  0
  9 12  1  0  0  0  0
 11  6  1  0  0  0  0
 14  9  1  0  0  0  0
M  END
$$$$
