14
butane_opt
C  -3.949490   0.287269   0.031636
C  -2.678768  -0.628979   0.057284
H  -4.860767  -0.323066  -0.206212
H  -3.847909   0.753556  -0.792170
H  -4.079303   1.094778   0.993719
C  -1.377292   0.145679  -0.024844
H  -2.675869  -1.260892  -0.790556
H  -2.663856  -1.249494   0.969847
C  -0.203179  -0.676557   0.047188
H  -1.423811   0.845218   0.799027
H  -1.390308   0.739996  -0.937134
H  -0.220748  -1.244756   0.895478
H   0.771835  -0.047034  -0.019375
H  -0.134824  -1.305158  -0.798842
