butane_opt
 OpenBabel08242015413D

 14 13  0  0  0  0  0  0  0  0999 V2000
   -3.9678    0.2372   -0.0259 C   0  0  0  0  0  0  0  0  0  0  0  0
   -2.7145   -0.5908    0.1098 C   0  0  0  0  0  0  0  0  0  0  0  0
   -4.9060   -0.3227   -0.1765 H   0  0  0  0  0  0  0  0  0  0  0  0
   -3.7943    0.8197   -0.9610 H   0  0  0  0  0  0  0  0  0  0  0  0
   -4.0638    0.9029    0.7950 H   0  0  0  0  0  0  0  0  0  0  0  0
   -1.4011    0.2117    0.0674 C   0  0  0  0  0  0  0  0  0  0  0  0
   -2.6701   -1.2476   -0.7127 H   0  0  0  0  0  0  0  0  0  0  0  0
   -2.7705   -1.2515    0.9920 H   0  0  0  0  0  0  0  0  0  0  0  0
   -0.1273   -0.7171   -0.0272 C   0  0  0  0  0  0  0  0  0  0  0  0
   -1.3286    0.9200    0.9605 H   0  0  0  0  0  0  0  0  0  0  0  0
   -1.5237    0.8939   -0.8264 H   0  0  0  0  0  0  0  0  0  0  0  0
   -0.0059   -1.3356    0.8427 H   0  0  0  0  0  0  0  0  0  0  0  0
    0.7478   -0.1610   -0.0376 H   0  0  0  0  0  0  0  0  0  0  0  0
   -0.1755   -1.3956   -0.9129 H   0  0  0  0  0  0  0  0  0  0  0  0
  1  2  1  0  0  0  0
  1  5  1  0  0  0  0
  2  8  1  0  0  0  0
  3  1  1  0  0  0  0
  4  1  1  0  0  0  0
  6  2  1  0  0  0  0
  6 10  1  0  0  0  0
  7  2  1  0  0  0  0
  9  6  1  0  0  0  0
  9 12  1  0  0  0  0
 11  6  1  0  0  0  0
 13  9  1  0  0  0  0
 14  9  1  0  0  0  0
M  END
$$$$
