butane_opt
 OpenBabel08242015413D

 14 13  0  0  0  0  0  0  0  0999 V2000
   -3.9607    0.2651    0.0009 C   0  0  0  0  0  0  0  0  0  0  0  0
   -2.7028   -0.6310    0.0627 C   0  0  0  0  0  0  0  0  0  0  0  0
   -4.7895   -0.2401   -0.0495 H   0  0  0  0  0  0  0  0  0  0  0  0
   -3.9484    0.9596   -0.9358 H   0  0  0  0  0  0  0  0  0  0  0  0
   -4.0910    0.9643    0.8543 H   0  0  0  0  0  0  0  0  0  0  0  0
   -1.3912    0.1863    0.0553 C   0  0  0  0  0  0  0  0  0  0  0  0
   -2.6896   -1.3619   -0.8671 H   0  0  0  0  0  0  0  0  0  0  0  0
   -2.8381   -1.1946    0.9079 H   0  0  0  0  0  0  0  0  0  0  0  0
   -0.1522   -0.6842   -0.0072 C   0  0  0  0  0  0  0  0  0  0  0  0
   -1.2817    0.8284    0.8734 H   0  0  0  0  0  0  0  0  0  0  0  0
   -1.3968    0.7443   -0.7636 H   0  0  0  0  0  0  0  0  0  0  0  0
   -0.0406   -1.4695    1.0069 H   0  0  0  0  0  0  0  0  0  0  0  0
    0.7881   -0.0947   -0.1496 H   0  0  0  0  0  0  0  0  0  0  0  0
   -0.2551   -1.2218   -0.7482 H   0  0  0  0  0  0  0  0  0  0  0  0
  1  2  1  0  0  0  0
  1  5  1  0  0  0  0
  2  8  1  0  0  0  0
  3  1  1  0  0  0  0
  4  1  1  0  0  0  0
  6  2  1  0  0  0  0
  6 10  1  0  0  0  0
  7  2  1  0  0  0  0
  9  6  1  0  0  0  0
  9 12  1  0  0  0  0
 11  6  1  0  0  0  0
 13  9  1  0  0  0  0
 14  9  1  0  0  0  0
M  END
$$$$
