14
butane_opt
C  -3.960075   0.262682  -0.004074
C  -2.701457  -0.614323   0.050259
H  -4.910968  -0.342707   0.147076
H  -3.981884   0.953656  -0.970147
H  -3.938182   0.870539   0.808660
C  -1.393966   0.187140   0.036508
H  -2.727333  -1.288467  -0.787035
H  -2.695066  -1.244163   0.924725
C  -0.151531  -0.696867   0.014486
H  -1.362702   0.956943   0.940586
H  -1.392028   0.788009  -0.842380
H  -0.115792  -1.329998   0.928536
H   0.759036  -0.113605  -0.018214
H  -0.170525  -1.390461  -0.864787
