14
butane_opt
C  -3.969688   0.271027   0.052824
C  -2.700012  -0.619521  -0.022714
H  -4.820509  -0.285760   0.238167
H  -4.186002   0.985776  -0.826719
H  -3.956202   0.800124   0.818987
C  -1.397889   0.172259  -0.013091
H  -2.743467  -1.299853  -0.876625
H  -2.654063  -1.223752   0.845502
C  -0.135316  -0.690067   0.063196
H  -1.322207   0.864152   0.854179
H  -1.388225   0.723227  -0.892255
H  -0.253941  -1.310042   1.010523
H   0.793928  -0.033846   0.056552
H  -0.056377  -1.289530  -0.762467
