14
butane_opt
C  -3.923126   0.253165  -0.012888
C  -2.707368  -0.590261   0.031954
H  -4.866447  -0.428134   0.224028
H  -3.954060   0.992582  -1.042264
H  -3.904601   0.797871   0.748187
C  -1.399734   0.193471   0.065467
H  -2.712241  -1.157146  -0.742260
H  -2.776980  -1.298761   1.000523
C  -0.172091  -0.720232   0.006889
H  -1.429090   0.995555   1.031855
H  -1.473347   0.792933  -0.783686
H  -0.045180  -1.315490   0.891743
H   0.811090  -0.068537  -0.089830
H  -0.242445  -1.414627  -0.906106
