butane_opt
 OpenBabel08242015413D

 14 13  0  0  0  0  0  0  0  0999 V2000
   -3.9354    0.2596    0.0319 C   0  0  0  0  0  0  0  0  0  0  0  0
   -2.6907   -0.6035    0.0388 C   0  0  0  0  0  0  0  0  0  0  0  0
   -4.9050   -0.3846   -0.1521 H   0  0  0  0  0  0  0  0  0  0  0  0
   -3.9170    0.7127   -0.7139 H   0  0  0  0  0  0  0  0  0  0  0  0
   -3.9586    1.0416    0.9352 H   0  0  0  0  0  0  0  0  0  0  0  0
   -1.4115    0.1867   -0.0073 C   0  0  0  0  0  0  0  0  0  0  0  0
   -2.6977   -1.2742   -0.7834 H   0  0  0  0  0  0  0  0  0  0  0  0
   -2.6757   -1.2170    0.9352 H   0  0  0  0  0  0  0  0  0  0  0  0
   -0.1732   -0.7002    0.0490 C   0  0  0  0  0  0  0  0  0  0  0  0
   -1.4129    0.7470    0.7775 H   0  0  0  0  0  0  0  0  0  0  0  0
   -1.4170    0.9581   -1.0218 H   0  0  0  0  0  0  0  0  0  0  0  0
   -0.1689   -1.2854    0.8988 H   0  0  0  0  0  0  0  0  0  0  0  0
    0.7450   -0.1123    0.0666 H   0  0  0  0  0  0  0  0  0  0  0  0
   -0.0865   -1.3860   -0.8451 H   0  0  0  0  0  0  0  0  0  0  0  0
  1  2  1  0  0  0  0
  1  5  1  0  0  0  0
  2  8  1  0  0  0  0
  3  1  1  0  0  0  0
  4  1  1  0  0  0  0
  6  2  1  0  0  0  0
  6  9  1  0  0  0  0
  6 10  1  0  0  0  0
  7  2  1  0  0  0  0
  9 13  1  0  0  0  0
  9 12  1  0  0  0  0
 11  6  1  0  0  0  0
 14  9  1  0  0  0  0
M  END
$$$$
