butane_opt
 OpenBabel08242015413D

 14 13  0  0  0  0  0  0  0  0999 V2000
   -3.9364    0.2805    0.0411 C   0  0  0  0  0  0  0  0  0  0  0  0
   -2.6890   -0.6223    0.0108 C   0  0  0  0  0  0  0  0  0  0  0  0
   -4.8278   -0.3205   -0.0209 H   0  0  0  0  0  0  0  0  0  0  0  0
   -3.9939    0.8418   -0.7829 H   0  0  0  0  0  0  0  0  0  0  0  0
   -3.8956    1.0058    0.9534 H   0  0  0  0  0  0  0  0  0  0  0  0
   -1.4068    0.1552   -0.0138 C   0  0  0  0  0  0  0  0  0  0  0  0
   -2.7185   -1.4030   -0.9014 H   0  0  0  0  0  0  0  0  0  0  0  0
   -2.6664   -1.1858    0.8639 H   0  0  0  0  0  0  0  0  0  0  0  0
   -0.1635   -0.6752    0.0506 C   0  0  0  0  0  0  0  0  0  0  0  0
   -1.4792    0.8697    0.8641 H   0  0  0  0  0  0  0  0  0  0  0  0
   -1.4181    0.6979   -0.8815 H   0  0  0  0  0  0  0  0  0  0  0  0
   -0.2009   -1.4669    1.0967 H   0  0  0  0  0  0  0  0  0  0  0  0
    0.7430   -0.0525   -0.1483 H   0  0  0  0  0  0  0  0  0  0  0  0
   -0.2278   -1.1013   -0.6524 H   0  0  0  0  0  0  0  0  0  0  0  0
  1  5  1  0  0  0  0
  2  1  1  0  0  0  0
  2  8  1  0  0  0  0
  3  1  1  0  0  0  0
  4  1  1  0  0  0  0
  6  2  1  0  0  0  0
  6  9  1  0  0  0  0
  6 10  1  0  0  0  0
  7  2  1  0  0  0  0
  9 12  1  0  0  0  0
 11  6  1  0  0  0  0
 13  9  1  0  0  0  0
 14  9  1  0  0  0  0
M  END
$$$$
