butane_opt
 OpenBabel08242015413D

 14 13  0  0  0  0  0  0  0  0999 V2000
   -3.9440    0.2789    0.0544 C   0  0  0  0  0  0  0  0  0  0  0  0
   -2.7203   -0.6480   -0.0238 C   0  0  0  0  0  0  0  0  0  0  0  0
   -4.8464   -0.2585    0.3477 H   0  0  0  0  0  0  0  0  0  0  0  0
   -4.1574    0.9648   -0.8903 H   0  0  0  0  0  0  0  0  0  0  0  0
   -3.8424    0.8601    0.8648 H   0  0  0  0  0  0  0  0  0  0  0  0
   -1.3856    0.1957   -0.0172 C   0  0  0  0  0  0  0  0  0  0  0  0
   -2.7736   -1.4013   -0.9389 H   0  0  0  0  0  0  0  0  0  0  0  0
   -2.7293   -1.1472    0.7874 H   0  0  0  0  0  0  0  0  0  0  0  0
   -0.1576   -0.6910    0.0779 C   0  0  0  0  0  0  0  0  0  0  0  0
   -1.4931    0.8264    0.7855 H   0  0  0  0  0  0  0  0  0  0  0  0
   -1.3282    0.8545   -0.9076 H   0  0  0  0  0  0  0  0  0  0  0  0
   -0.1041   -1.3801    1.0061 H   0  0  0  0  0  0  0  0  0  0  0  0
    0.7863   -0.0548    0.0511 H   0  0  0  0  0  0  0  0  0  0  0  0
   -0.0659   -1.3492   -0.7651 H   0  0  0  0  0  0  0  0  0  0  0  0
  1  3  1  0  0  0  0
  1  5  1  0  0  0  0
  2  6  1  0  0  0  0
  2  1  1  0  0  0  0
  2  8  1  0  0  0  0
  4  1  1  0  0  0  0
  6  9  1  0  0  0  0
  6 10  1  0  0  0  0
  7  2  1  0  0  0  0
  9 12  1  0  0  0  0
 11  6  1  0  0  0  0
 13  9  1  0  0  0  0
 14  9  1  0  0  0  0
M  END
$$$$
