14
butane_opt
C  -3.962371   0.289759   0.034679
C  -2.688112  -0.630219  -0.005226
H  -4.896821  -0.272408   0.108561
H  -4.031639   0.832607  -0.815567
H  -3.997933   0.948945   0.884286
C  -1.400700   0.148747   0.005869
H  -2.749291  -1.380735  -0.917888
H  -2.652704  -1.228431   0.858710
C  -0.158369  -0.665026   0.061781
H  -1.349879   0.820685   0.919550
H  -1.349706   0.795718  -0.912268
H  -0.014326  -1.441116   1.075801
H   0.772847  -0.041836  -0.200194
H  -0.258139  -1.210911  -0.706698
