14
butane_opt
C  -3.951449   0.251885   0.057838
C  -2.718935  -0.582304  -0.008933
H  -4.879837  -0.370085   0.038384
H  -4.014489   0.768101  -0.806144
H  -3.899131   0.955770   0.984292
C  -1.412655   0.201753  -0.033748
H  -2.764660  -1.300753  -0.894754
H  -2.747787  -1.273833   0.950464
C  -0.138768  -0.715385   0.070353
H  -1.315110   0.811147   0.789996
H  -1.385901   0.884667  -0.947846
H  -0.146521  -1.314373   0.969721
H   0.749803  -0.128589   0.070003
H   0.047294  -1.373619  -0.735741
