14
butane_opt
C  -3.951972   0.275886   0.036972
C  -2.703248  -0.635089   0.036835
H  -4.861084  -0.305325   0.006038
H  -3.929198   0.874107  -0.840257
H  -4.041173   0.982880   0.893183
C  -1.393245   0.180260  -0.017833
H  -2.739171  -1.317467  -0.854478
H  -2.686413  -1.265027   0.932668
C  -0.167626  -0.681611   0.046763
H  -1.350520   0.827368   0.819053
H  -1.380514   0.853631  -0.934138
H  -0.146572  -1.277244   0.923224
H   0.748648  -0.085474   0.124916
H  -0.054773  -1.435134  -0.859391
