14
butane_opt
C  -3.923787   0.248391  -0.046878
C  -2.716080  -0.599069   0.111098
H  -4.822846  -0.347986  -0.086675
H  -3.868366   0.827046  -0.933691
H  -4.136441   0.955457   0.847264
C  -1.419866   0.204862   0.074662
H  -2.691848  -1.264596  -0.721771
H  -2.760099  -1.290890   1.006907
C  -0.147203  -0.708143  -0.021018
H  -1.427370   0.859426   0.930786
H  -1.383748   0.820917  -0.803176
H   0.063729  -1.261611   0.833067
H   0.729903  -0.145364  -0.138373
H  -0.234169  -1.375171  -0.905660
