14
butane_opt
C  -3.963048   0.276191   0.013995
C  -2.693404  -0.652039   0.067944
H  -4.856451  -0.269049  -0.000801
H  -3.937815   0.917450  -0.930641
H  -4.082477   0.845054   0.823591
C  -1.384845   0.192197  -0.001711
H  -2.731947  -1.239009  -0.732756
H  -2.637829  -1.252618   0.968431
C  -0.155246  -0.683436   0.020644
H  -1.359535   0.855436   0.867236
H  -1.444181   0.873385  -0.893952
H  -0.192619  -1.123575   0.790226
H   0.725914  -0.151638   0.275265
H  -0.141421  -1.537552  -0.956232
