14
butane_opt
C  -3.972860   0.290557   0.044102
C  -2.675924  -0.634271   0.039565
H  -4.863871  -0.325399  -0.207752
H  -3.952084   0.728252  -0.745225
H  -4.167546   1.056432   0.965423
C  -1.387384   0.160605  -0.014558
H  -2.754491  -1.335017  -0.844327
H  -2.648658  -1.219283   0.861426
C  -0.163519  -0.666966   0.038475
H  -1.374756   0.754847   0.805744
H  -1.317329   0.819240  -0.945375
H  -0.135246  -1.432014   1.040668
H   0.758423  -0.032123  -0.021901
H  -0.177817  -1.280493  -0.738111
