14
butane_opt
C  -3.924713   0.258798  -0.008325
C  -2.713217  -0.596775   0.068776
H  -4.866090  -0.393345   0.007474
H  -3.934804   0.863913  -0.910026
H  -3.962575   0.908877   0.837427
C  -1.410653   0.189384   0.034813
H  -2.674480  -1.290764  -0.768676
H  -2.720182  -1.252620   0.954823
C  -0.165392  -0.702497   0.009678
H  -1.329159   0.867238   0.914193
H  -1.429991   0.872123  -0.871184
H  -0.080639  -1.286406   0.866907
H   0.707167  -0.137584   0.017636
H  -0.157309  -1.417674  -0.866926
