butane_opt
 OpenBabel08242015413D

 14 13  0  0  0  0  0  0  0  0999 V2000
   -3.9443    0.3007    0.0137 C   0  0  0  0  0  0  0  0  0  0  0  0
   -2.6827   -0.6302    0.0544 C   0  0  0  0  0  0  0  0  0  0  0  0
   -4.8998   -0.3826    0.0955 H   0  0  0  0  0  0  0  0  0  0  0  0
   -3.9537    0.8830   -0.8677 H   0  0  0  0  0  0  0  0  0  0  0  0
   -3.9568    0.9160    0.8746 H   0  0  0  0  0  0  0  0  0  0  0  0
   -1.4007    0.1519   -0.0148 C   0  0  0  0  0  0  0  0  0  0  0  0
   -2.6520   -1.3311   -0.7967 H   0  0  0  0  0  0  0  0  0  0  0  0
   -2.7424   -1.2765    1.0189 H   0  0  0  0  0  0  0  0  0  0  0  0
   -0.1758   -0.6735    0.0436 C   0  0  0  0  0  0  0  0  0  0  0  0
   -1.3746    0.7619    0.7996 H   0  0  0  0  0  0  0  0  0  0  0  0
   -1.3813    0.8222   -0.9266 H   0  0  0  0  0  0  0  0  0  0  0  0
   -0.2604   -1.0675    0.7814 H   0  0  0  0  0  0  0  0  0  0  0  0
    0.7451   -0.0420    0.2092 H   0  0  0  0  0  0  0  0  0  0  0  0
   -0.1101   -1.5401   -0.9280 H   0  0  0  0  0  0  0  0  0  0  0  0
  1  2  1  0  0  0  0
  1  3  1  0  0  0  0
  1  5  1  0  0  0  0
  2  8  1  0  0  0  0
  4  1  1  0  0  0  0
  6  9  1  0  0  0  0
  6  2  1  0  0  0  0
  6 10  1  0  0  0  0
  7  2  1  0  0  0  0
  9 13  1  0  0  0  0
  9 12  1  0  0  0  0
 11  6  1  0  0  0  0
 14  9  1  0  0  0  0
M  END
$$$$
