butane_opt
 OpenBabel08242015413D

 14 13  0  0  0  0  0  0  0  0999 V2000
   -3.9557    0.2548   -0.0353 C   0  0  0  0  0  0  0  0  0  0  0  0
   -2.7048   -0.6255    0.1133 C   0  0  0  0  0  0  0  0  0  0  0  0
   -4.8291   -0.2820   -0.1981 H   0  0  0  0  0  0  0  0  0  0  0  0
   -3.9339    0.8027   -0.8301 H   0  0  0  0  0  0  0  0  0  0  0  0
   -4.0723    0.9875    0.8458 H   0  0  0  0  0  0  0  0  0  0  0  0
   -1.4062    0.2185    0.0595 C   0  0  0  0  0  0  0  0  0  0  0  0
   -2.6211   -1.2795   -0.6935 H   0  0  0  0  0  0  0  0  0  0  0  0
   -2.8612   -1.2637    1.0236 H   0  0  0  0  0  0  0  0  0  0  0  0
   -0.1476   -0.7144   -0.0183 C   0  0  0  0  0  0  0  0  0  0  0  0
   -1.3353    0.8537    0.8550 H   0  0  0  0  0  0  0  0  0  0  0  0
   -1.4193    0.8607   -0.8677 H   0  0  0  0  0  0  0  0  0  0  0  0
   -0.0188   -1.2502    0.8248 H   0  0  0  0  0  0  0  0  0  0  0  0
    0.8048   -0.0962   -0.0328 H   0  0  0  0  0  0  0  0  0  0  0  0
   -0.1672   -1.4052   -0.9077 H   0  0  0  0  0  0  0  0  0  0  0  0
  1  2  1  0  0  0  0
  1  5  1  0  0  0  0
  2  8  1  0  0  0  0
  3  1  1  0  0  0  0
  4  1  1  0  0  0  0
  6  2  1  0  0  0  0
  6 10  1  0  0  0  0
  7  2  1  0  0  0  0
  9  6  1  0  0  0  0
  9 12  1  0  0  0  0
 11  6  1  0  0  0  0
 13  9  1  0  0  0  0
 14  9  1  0  0  0  0
M  END
$$$$
