14
butane_opt
C  -3.947786   0.255892  -0.029685
C  -2.700501  -0.596401   0.075052
H  -4.882465  -0.397032   0.228438
H  -3.991072   1.076498  -1.040433
H  -3.837105   0.670377   0.713659
C  -1.410224   0.192751   0.066148
H  -2.590974  -1.272211  -0.753846
H  -2.709645  -1.252742   0.941824
C  -0.158948  -0.706108  -0.004195
H  -1.373251   0.956004   0.977686
H  -1.410183   0.810968  -0.812916
H  -0.151407  -1.169201   0.817744
H   0.739064  -0.149084   0.034714
H  -0.195687  -1.506901  -0.992108
