14
butane_opt
C  -3.935165   0.265196   0.078195
C  -2.685030  -0.633099  -0.004009
H  -4.826241  -0.273305   0.123896
H  -3.965925   0.833709  -0.791810
H  -3.956139   0.993095   0.957634
C  -1.408445   0.182377  -0.064322
H  -2.697535  -1.327333  -0.901200
H  -2.683935  -1.247464   0.850038
C  -0.176718  -0.688884   0.095555
H  -1.526826   0.787425   0.730976
H  -1.354277   0.972032  -1.099227
H  -0.269578  -1.170144   0.890468
H   0.766122  -0.034621   0.250683
H  -0.055775  -1.512831  -0.837565
