butane_opt
 OpenBabel08242015413D

 14 13  0  0  0  0  0  0  0  0999 V2000
   -3.9478    0.2559   -0.0297 C   0  0  0  0  0  0  0  0  0  0  0  0
   -2.7005   -0.5964    0.0751 C   0  0  0  0  0  0  0  0  0  0  0  0
   -4.8825   -0.3970    0.2284 H   0  0  0  0  0  0  0  0  0  0  0  0
   -3.9911    1.0765   -1.0404 H   0  0  0  0  0  0  0  0  0  0  0  0
   -3.8371    0.6704    0.7137 H   0  0  0  0  0  0  0  0  0  0  0  0
   -1.4102    0.1928    0.0661 C   0  0  0  0  0  0  0  0  0  0  0  0
   -2.5910   -1.2722   -0.7538 H   0  0  0  0  0  0  0  0  0  0  0  0
   -2.7096   -1.2527    0.9418 H   0  0  0  0  0  0  0  0  0  0  0  0
   -0.1589   -0.7061   -0.0042 C   0  0  0  0  0  0  0  0  0  0  0  0
   -1.3733    0.9560    0.9777 H   0  0  0  0  0  0  0  0  0  0  0  0
   -1.4102    0.8110   -0.8129 H   0  0  0  0  0  0  0  0  0  0  0  0
   -0.1514   -1.1692    0.8177 H   0  0  0  0  0  0  0  0  0  0  0  0
    0.7391   -0.1491    0.0347 H   0  0  0  0  0  0  0  0  0  0  0  0
   -0.1957   -1.5069   -0.9921 H   0  0  0  0  0  0  0  0  0  0  0  0
  1  2  1  0  0  0  0
  1  3  1  0  0  0  0
  1  5  1  0  0  0  0
  2  8  1  0  0  0  0
  4  1  1  0  0  0  0
  6  2  1  0  0  0  0
  6 10  1  0  0  0  0
  7  2  1  0  0  0  0
  9 13  1  0  0  0  0
  9  6  1  0  0  0  0
  9 12  1  0  0  0  0
 11  6  1  0  0  0  0
 14  9  1  0  0  0  0
M  END
$$$$
