14
butane_opt
C  -3.934123   0.249942   0.034865
C  -2.712208  -0.587365   0.036414
H  -4.838282  -0.311235   0.045264
H  -3.957904   0.730861  -0.764943
H  -3.931170   1.010848   0.943861
C  -1.404340   0.181349  -0.031493
H  -2.686575  -1.299930  -0.868385
H  -2.708863  -1.194965   0.937757
C  -0.154514  -0.705657   0.057887
H  -1.462295   0.793131   0.752335
H  -1.374538   0.904045  -1.012791
H  -0.264786  -1.237079   0.937408
H   0.769259  -0.097825   0.167523
H  -0.097841  -1.442781  -0.861789
