butane_opt
 OpenBabel08242015413D

 14 13  0  0  0  0  0  0  0  0999 V2000
   -3.9378    0.2773    0.0371 C   0  0  0  0  0  0  0  0  0  0  0  0
   -2.7043   -0.6197    0.0240 C   0  0  0  0  0  0  0  0  0  0  0  0
   -4.8377   -0.3175   -0.0772 H   0  0  0  0  0  0  0  0  0  0  0  0
   -3.9279    0.7399   -0.7757 H   0  0  0  0  0  0  0  0  0  0  0  0
   -3.9733    1.0524    0.9727 H   0  0  0  0  0  0  0  0  0  0  0  0
   -1.4058    0.1658   -0.0238 C   0  0  0  0  0  0  0  0  0  0  0  0
   -2.7062   -1.2915   -0.8214 H   0  0  0  0  0  0  0  0  0  0  0  0
   -2.6660   -1.2735    0.9248 H   0  0  0  0  0  0  0  0  0  0  0  0
   -0.1636   -0.6889    0.0605 C   0  0  0  0  0  0  0  0  0  0  0  0
   -1.3830    0.8471    0.8223 H   0  0  0  0  0  0  0  0  0  0  0  0
   -1.3931    0.8566   -0.9304 H   0  0  0  0  0  0  0  0  0  0  0  0
   -0.1574   -1.3344    0.9758 H   0  0  0  0  0  0  0  0  0  0  0  0
    0.7815   -0.0703   -0.0007 H   0  0  0  0  0  0  0  0  0  0  0  0
   -0.2254   -1.2968   -0.8024 H   0  0  0  0  0  0  0  0  0  0  0  0
  1  5  1  0  0  0  0
  2  1  1  0  0  0  0
  2  8  1  0  0  0  0
  3  1  1  0  0  0  0
  4  1  1  0  0  0  0
  6  2  1  0  0  0  0
  6  9  1  0  0  0  0
  6 10  1  0  0  0  0
  7  2  1  0  0  0  0
  9 12  1  0  0  0  0
 11  6  1  0  0  0  0
 13  9  1  0  0  0  0
 14  9  1  0  0  0  0
M  END
$$$$
