butane_opt
 OpenBabel08242015413D

 14 13  0  0  0  0  0  0  0  0999 V2000
   -3.9352    0.2652    0.0782 C   0  0  0  0  0  0  0  0  0  0  0  0
   -2.6850   -0.6331   -0.0040 C   0  0  0  0  0  0  0  0  0  0  0  0
   -4.8262   -0.2733    0.1239 H   0  0  0  0  0  0  0  0  0  0  0  0
   -3.9659    0.8337   -0.7918 H   0  0  0  0  0  0  0  0  0  0  0  0
   -3.9561    0.9931    0.9576 H   0  0  0  0  0  0  0  0  0  0  0  0
   -1.4084    0.1824   -0.0643 C   0  0  0  0  0  0  0  0  0  0  0  0
   -2.6975   -1.3273   -0.9012 H   0  0  0  0  0  0  0  0  0  0  0  0
   -2.6839   -1.2475    0.8500 H   0  0  0  0  0  0  0  0  0  0  0  0
   -0.1767   -0.6889    0.0956 C   0  0  0  0  0  0  0  0  0  0  0  0
   -1.5268    0.7874    0.7310 H   0  0  0  0  0  0  0  0  0  0  0  0
   -1.3543    0.9720   -1.0992 H   0  0  0  0  0  0  0  0  0  0  0  0
   -0.2696   -1.1701    0.8905 H   0  0  0  0  0  0  0  0  0  0  0  0
    0.7661   -0.0346    0.2507 H   0  0  0  0  0  0  0  0  0  0  0  0
   -0.0558   -1.5128   -0.8376 H   0  0  0  0  0  0  0  0  0  0  0  0
  1  3  1  0  0  0  0
  1  5  1  0  0  0  0
  2  1  1  0  0  0  0
  2  8  1  0  0  0  0
  4  1  1  0  0  0  0
  6  2  1  0  0  0  0
  6  9  1  0  0  0  0
  6 10  1  0  0  0  0
  7  2  1  0  0  0  0
  9 13  1  0  0  0  0
  9 12  1  0  0  0  0
 11  6  1  0  0  0  0
 14  9  1  0  0  0  0
M  END
$$$$
