butane_opt
 OpenBabel08242015413D

 14 13  0  0  0  0  0  0  0  0999 V2000
   -3.9526    0.2445   -0.0192 C   0  0  0  0  0  0  0  0  0  0  0  0
   -2.6943   -0.5932    0.0537 C   0  0  0  0  0  0  0  0  0  0  0  0
   -4.8960   -0.3814    0.2017 H   0  0  0  0  0  0  0  0  0  0  0  0
   -4.0081    1.0497   -1.0303 H   0  0  0  0  0  0  0  0  0  0  0  0
   -3.9353    0.6824    0.7017 H   0  0  0  0  0  0  0  0  0  0  0  0
   -1.4106    0.2183    0.0749 C   0  0  0  0  0  0  0  0  0  0  0  0
   -2.7633   -1.2890   -0.8114 H   0  0  0  0  0  0  0  0  0  0  0  0
   -2.7507   -1.2820    1.0040 H   0  0  0  0  0  0  0  0  0  0  0  0
   -0.1501   -0.7125   -0.0081 C   0  0  0  0  0  0  0  0  0  0  0  0
   -1.3941    0.9303    0.9572 H   0  0  0  0  0  0  0  0  0  0  0  0
   -1.3785    0.8344   -0.7662 H   0  0  0  0  0  0  0  0  0  0  0  0
    0.0572   -1.2847    0.7990 H   0  0  0  0  0  0  0  0  0  0  0  0
    0.6987   -0.1757    0.0220 H   0  0  0  0  0  0  0  0  0  0  0  0
   -0.1494   -1.4436   -0.8796 H   0  0  0  0  0  0  0  0  0  0  0  0
  1  2  1  0  0  0  0
  1  3  1  0  0  0  0
  1  5  1  0  0  0  0
  2  6  1  0  0  0  0
  2  8  1  0  0  0  0
  4  1  1  0  0  0  0
  6 10  1  0  0  0  0
  7  2  1  0  0  0  0
  9 13  1  0  0  0  0
  9  6  1  0  0  0  0
  9 12  1  0  0  0  0
 11  6  1  0  0  0  0
 14  9  1  0  0  0  0
M  END
$$$$
