14
butane_opt
C  -3.933156   0.266068   0.009796
C  -2.697244  -0.624336   0.044091
H  -4.818251  -0.289431   0.113060
H  -3.992258   1.006317  -0.946010
H  -3.979966   0.816603   0.780468
C  -1.404832   0.180691   0.027505
H  -2.693660  -1.246219  -0.783781
H  -2.729959  -1.257801   0.930782
C  -0.169233  -0.693853   0.017346
H  -1.357984   0.938512   0.923180
H  -1.380415   0.746557  -0.810556
H  -0.208745  -1.258147   0.873786
H   0.748023  -0.100043   0.013434
H  -0.150760  -1.373017  -0.856979
