14
butane_opt
C  -3.936245   0.254369  -0.042268
C  -2.735164  -0.589053   0.137268
H  -4.830640  -0.369968  -0.144258
H  -3.811998   0.769410  -0.933098
H  -4.164226   0.946604   0.791706
C  -1.409240   0.194416   0.062098
H  -2.728053  -1.236091  -0.722815
H  -2.716348  -1.259595   1.020618
C  -0.133251  -0.711322  -0.035151
H  -1.333718   0.849007   0.914625
H  -1.499675   0.834480  -0.849321
H  -0.076174  -1.216727   0.810333
H   0.798701  -0.122828   0.059729
H  -0.093655  -1.450233  -0.963424
