butane_opt
 OpenBabel08242015413D

 14 13  0  0  0  0  0  0  0  0999 V2000
   -3.9475    0.2762   -0.0314 C   0  0  0  0  0  0  0  0  0  0  0  0
   -2.6841   -0.6084    0.1223 C   0  0  0  0  0  0  0  0  0  0  0  0
   -4.8527   -0.2854    0.0256 H   0  0  0  0  0  0  0  0  0  0  0  0
   -4.0021    0.9752   -0.9699 H   0  0  0  0  0  0  0  0  0  0  0  0
   -3.9608    0.7902    0.7073 H   0  0  0  0  0  0  0  0  0  0  0  0
   -1.3876    0.1478    0.0420 C   0  0  0  0  0  0  0  0  0  0  0  0
   -2.6926   -1.3032   -0.7234 H   0  0  0  0  0  0  0  0  0  0  0  0
   -2.6716   -1.2739    1.0279 H   0  0  0  0  0  0  0  0  0  0  0  0
   -0.1898   -0.6781   -0.0175 C   0  0  0  0  0  0  0  0  0  0  0  0
   -1.3378    0.8404    0.8617 H   0  0  0  0  0  0  0  0  0  0  0  0
   -1.4938    0.8057   -0.8671 H   0  0  0  0  0  0  0  0  0  0  0  0
   -0.2658   -1.0324    0.7156 H   0  0  0  0  0  0  0  0  0  0  0  0
    0.7982   -0.0443    0.3007 H   0  0  0  0  0  0  0  0  0  0  0  0
   -0.0508   -1.5922   -1.0627 H   0  0  0  0  0  0  0  0  0  0  0  0
  1  3  1  0  0  0  0
  1  2  1  0  0  0  0
  1  5  1  0  0  0  0
  2  8  1  0  0  0  0
  4  1  1  0  0  0  0
  6  2  1  0  0  0  0
  6 10  1  0  0  0  0
  7  2  1  0  0  0  0
  9  6  1  0  0  0  0
  9 13  1  0  0  0  0
  9 12  1  0  0  0  0
 11  6  1  0  0  0  0
 14  9  1  0  0  0  0
M  END
$$$$
