butane_opt
 OpenBabel08242015413D

 14 13  0  0  0  0  0  0  0  0999 V2000
   -3.9181    0.2460    0.0698 C   0  0  0  0  0  0  0  0  0  0  0  0
   -2.7053   -0.6061   -0.0331 C   0  0  0  0  0  0  0  0  0  0  0  0
   -4.8413   -0.3459    0.2188 H   0  0  0  0  0  0  0  0  0  0  0  0
   -4.0377    0.9824   -0.8973 H   0  0  0  0  0  0  0  0  0  0  0  0
   -3.8758    0.8230    0.9108 H   0  0  0  0  0  0  0  0  0  0  0  0
   -1.4128    0.2088   -0.0304 C   0  0  0  0  0  0  0  0  0  0  0  0
   -2.8872   -1.2242   -0.8915 H   0  0  0  0  0  0  0  0  0  0  0  0
   -2.7151   -1.1943    0.8337 H   0  0  0  0  0  0  0  0  0  0  0  0
   -0.1606   -0.7168    0.0738 C   0  0  0  0  0  0  0  0  0  0  0  0
   -1.4335    0.9294    0.8391 H   0  0  0  0  0  0  0  0  0  0  0  0
   -1.3766    0.8115   -0.9213 H   0  0  0  0  0  0  0  0  0  0  0  0
   -0.1397   -1.3759    1.0144 H   0  0  0  0  0  0  0  0  0  0  0  0
    0.7157   -0.1080    0.1319 H   0  0  0  0  0  0  0  0  0  0  0  0
   -0.0656   -1.3594   -0.7672 H   0  0  0  0  0  0  0  0  0  0  0  0
  1  3  1  0  0  0  0
  1  5  1  0  0  0  0
  2  6  1  0  0  0  0
  2  1  1  0  0  0  0
  2  8  1  0  0  0  0
  4  1  1  0  0  0  0
  6  9  1  0  0  0  0
  6 10  1  0  0  0  0
  7  2  1  0  0  0  0
  9 13  1  0  0  0  0
  9 12  1  0  0  0  0
 11  6  1  0  0  0  0
 14  9  1  0  0  0  0
M  END
$$$$
