14
butane_opt
C  -3.952555   0.244451  -0.019234
C  -2.694293  -0.593200   0.053722
H  -4.895978  -0.381375   0.201717
H  -4.008074   1.049744  -1.030319
H  -3.935333   0.682417   0.701717
C  -1.410637   0.218348   0.074869
H  -2.763299  -1.289039  -0.811355
H  -2.750738  -1.282041   1.004020
C  -0.150110  -0.712462  -0.008148
H  -1.394128   0.930331   0.957196
H  -1.378478   0.834439  -0.766216
H   0.057153  -1.284730   0.798995
H   0.698677  -0.175698   0.022048
H  -0.149387  -1.443649  -0.879600
