butane_opt
 OpenBabel08242015413D

 14 13  0  0  0  0  0  0  0  0999 V2000
   -3.9784    0.2858   -0.0224 C   0  0  0  0  0  0  0  0  0  0  0  0
   -2.6951   -0.6419    0.0630 C   0  0  0  0  0  0  0  0  0  0  0  0
   -4.8949   -0.3276    0.0810 H   0  0  0  0  0  0  0  0  0  0  0  0
   -3.9729    0.9496   -1.0139 H   0  0  0  0  0  0  0  0  0  0  0  0
   -3.9797    0.8438    0.7726 H   0  0  0  0  0  0  0  0  0  0  0  0
   -1.3782    0.1920    0.0736 C   0  0  0  0  0  0  0  0  0  0  0  0
   -2.7641   -1.2215   -0.7609 H   0  0  0  0  0  0  0  0  0  0  0  0
   -2.7067   -1.3032    0.9824 H   0  0  0  0  0  0  0  0  0  0  0  0
   -0.1622   -0.6899   -0.0070 C   0  0  0  0  0  0  0  0  0  0  0  0
   -1.3506    0.8725    0.9631 H   0  0  0  0  0  0  0  0  0  0  0  0
   -1.3631    0.7654   -0.7672 H   0  0  0  0  0  0  0  0  0  0  0  0
   -0.0424   -1.3114    0.8685 H   0  0  0  0  0  0  0  0  0  0  0  0
    0.7747   -0.0815   -0.1020 H   0  0  0  0  0  0  0  0  0  0  0  0
   -0.1690   -1.3987   -0.8915 H   0  0  0  0  0  0  0  0  0  0  0  0
  1  2  1  0  0  0  0
  1  3  1  0  0  0  0
  1  5  1  0  0  0  0
  2  6  1  0  0  0  0
  2  8  1  0  0  0  0
  4  1  1  0  0  0  0
  6 10  1  0  0  0  0
  7  2  1  0  0  0  0
  9  6  1  0  0  0  0
  9 12  1  0  0  0  0
 11  6  1  0  0  0  0
 13  9  1  0  0  0  0
 14  9  1  0  0  0  0
M  END
$$$$
