14
butane_opt
C  -3.945501   0.254143  -0.036211
C  -2.706922  -0.624484   0.083503
H  -4.843051  -0.378010   0.207009
H  -4.026224   1.065026  -1.066533
H  -3.924338   0.788394   0.723425
C  -1.424230   0.221559   0.073289
H  -2.659627  -1.278936  -0.724179
H  -2.821683  -1.247403   0.965868
C  -0.128165  -0.704913  -0.015105
H  -1.302071   0.916291   0.917651
H  -1.466205   0.775644  -0.780782
H  -0.059127  -1.206141   0.811126
H   0.743504  -0.168273   0.078921
H  -0.194619  -1.494547  -0.968023
