14
butane_opt
C  -3.941881   0.248015  -0.027037
C  -2.730488  -0.596370   0.096060
H  -4.869661  -0.413268  -0.065907
H  -3.936776   0.953924  -1.003900
H  -4.029719   0.876671   0.743047
C  -1.392819   0.205294   0.079218
H  -2.689249  -1.296408  -0.779584
H  -2.841440  -1.124761   0.913329
C  -0.133337  -0.713602  -0.019234
H  -1.341514   0.927416   1.010389
H  -1.497951   0.754695  -0.745788
H   0.041617  -1.439926   0.927885
H   0.734098  -0.159026  -0.270369
H  -0.200839  -1.275058  -0.831146
