butane_opt
 OpenBabel08242015413D

 14 13  0  0  0  0  0  0  0  0999 V2000
   -3.9352    0.2839    0.0241 C   0  0  0  0  0  0  0  0  0  0  0  0
   -2.6993   -0.6307    0.0405 C   0  0  0  0  0  0  0  0  0  0  0  0
   -4.8646   -0.2761   -0.0574 H   0  0  0  0  0  0  0  0  0  0  0  0
   -3.8990    0.7198   -0.7589 H   0  0  0  0  0  0  0  0  0  0  0  0
   -3.9792    1.1167    0.9991 H   0  0  0  0  0  0  0  0  0  0  0  0
   -1.4103    0.1680   -0.0299 C   0  0  0  0  0  0  0  0  0  0  0  0
   -2.7395   -1.2754   -0.7819 H   0  0  0  0  0  0  0  0  0  0  0  0
   -2.7205   -1.2918    0.9581 H   0  0  0  0  0  0  0  0  0  0  0  0
   -0.1725   -0.6877    0.0495 C   0  0  0  0  0  0  0  0  0  0  0  0
   -1.4227    0.8490    0.8501 H   0  0  0  0  0  0  0  0  0  0  0  0
   -1.3359    0.7623   -0.9499 H   0  0  0  0  0  0  0  0  0  0  0  0
   -0.1888   -1.3620    0.9580 H   0  0  0  0  0  0  0  0  0  0  0  0
    0.8581    0.0349    0.0579 H   0  0  0  0  0  0  0  0  0  0  0  0
   -0.1516   -1.3347   -0.8232 H   0  0  0  0  0  0  0  0  0  0  0  0
  1  2  1  0  0  0  0
  1  5  1  0  0  0  0
  2  8  1  0  0  0  0
  3  1  1  0  0  0  0
  4  1  1  0  0  0  0
  6  2  1  0  0  0  0
  6  9  1  0  0  0  0
  6 10  1  0  0  0  0
  7  2  1  0  0  0  0
  9 13  1  0  0  0  0
  9 12  1  0  0  0  0
 11  6  1  0  0  0  0
 14  9  1  0  0  0  0
M  END
$$$$
