butane_opt
 OpenBabel08242015413D

 14 13  0  0  0  0  0  0  0  0999 V2000
   -3.9419    0.2480   -0.0270 C   0  0  0  0  0  0  0  0  0  0  0  0
   -2.7305   -0.5964    0.0961 C   0  0  0  0  0  0  0  0  0  0  0  0
   -4.8697   -0.4133   -0.0659 H   0  0  0  0  0  0  0  0  0  0  0  0
   -3.9368    0.9539   -1.0039 H   0  0  0  0  0  0  0  0  0  0  0  0
   -4.0297    0.8767    0.7430 H   0  0  0  0  0  0  0  0  0  0  0  0
   -1.3928    0.2053    0.0792 C   0  0  0  0  0  0  0  0  0  0  0  0
   -2.6892   -1.2964   -0.7796 H   0  0  0  0  0  0  0  0  0  0  0  0
   -2.8414   -1.1248    0.9133 H   0  0  0  0  0  0  0  0  0  0  0  0
   -0.1333   -0.7136   -0.0192 C   0  0  0  0  0  0  0  0  0  0  0  0
   -1.3415    0.9274    1.0104 H   0  0  0  0  0  0  0  0  0  0  0  0
   -1.4980    0.7547   -0.7458 H   0  0  0  0  0  0  0  0  0  0  0  0
    0.0416   -1.4399    0.9279 H   0  0  0  0  0  0  0  0  0  0  0  0
    0.7341   -0.1590   -0.2704 H   0  0  0  0  0  0  0  0  0  0  0  0
   -0.2008   -1.2751   -0.8311 H   0  0  0  0  0  0  0  0  0  0  0  0
  1  2  1  0  0  0  0
  1  5  1  0  0  0  0
  2  8  1  0  0  0  0
  3  1  1  0  0  0  0
  4  1  1  0  0  0  0
  6  2  1  0  0  0  0
  6 10  1  0  0  0  0
  7  2  1  0  0  0  0
  9  6  1  0  0  0  0
  9 12  1  0  0  0  0
 11  6  1  0  0  0  0
 13  9  1  0  0  0  0
 14  9  1  0  0  0  0
M  END
$$$$
