butane_opt
 OpenBabel08242015413D

 14 13  0  0  0  0  0  0  0  0999 V2000
   -3.9600    0.2608   -0.0281 C   0  0  0  0  0  0  0  0  0  0  0  0
   -2.7097   -0.5964    0.1051 C   0  0  0  0  0  0  0  0  0  0  0  0
   -4.9453   -0.3591   -0.1665 H   0  0  0  0  0  0  0  0  0  0  0  0
   -3.8508    0.6962   -0.8240 H   0  0  0  0  0  0  0  0  0  0  0  0
   -4.0261    1.0209    0.8816 H   0  0  0  0  0  0  0  0  0  0  0  0
   -1.3980    0.1936    0.0329 C   0  0  0  0  0  0  0  0  0  0  0  0
   -2.6895   -1.2293   -0.6883 H   0  0  0  0  0  0  0  0  0  0  0  0
   -2.8459   -1.2327    1.0268 H   0  0  0  0  0  0  0  0  0  0  0  0
   -0.1470   -0.7040   -0.0141 C   0  0  0  0  0  0  0  0  0  0  0  0
   -1.3531    0.8399    0.9052 H   0  0  0  0  0  0  0  0  0  0  0  0
   -1.4113    0.7838   -0.8513 H   0  0  0  0  0  0  0  0  0  0  0  0
    0.0027   -1.3131    0.8815 H   0  0  0  0  0  0  0  0  0  0  0  0
    0.7473   -0.1313   -0.0046 H   0  0  0  0  0  0  0  0  0  0  0  0
   -0.0858   -1.4006   -0.8536 H   0  0  0  0  0  0  0  0  0  0  0  0
  1  2  1  0  0  0  0
  1  5  1  0  0  0  0
  2  8  1  0  0  0  0
  3  1  1  0  0  0  0
  4  1  1  0  0  0  0
  6  2  1  0  0  0  0
  6 10  1  0  0  0  0
  7  2  1  0  0  0  0
  9 13  1  0  0  0  0
  9  6  1  0  0  0  0
  9 12  1  0  0  0  0
 11  6  1  0  0  0  0
 14  9  1  0  0  0  0
M  END
$$$$
