14
butane_opt
C  -3.959960   0.260799  -0.028072
C  -2.709709  -0.596412   0.105106
H  -4.945319  -0.359125  -0.166471
H  -3.850753   0.696196  -0.823998
H  -4.026075   1.020920   0.881644
C  -1.397988   0.193568   0.032901
H  -2.689513  -1.229326  -0.688324
H  -2.845873  -1.232709   1.026818
C  -0.147045  -0.703983  -0.014078
H  -1.353124   0.839930   0.905242
H  -1.411333   0.783806  -0.851314
H   0.002652  -1.313138   0.881487
H   0.747293  -0.131300  -0.004561
H  -0.085781  -1.400615  -0.853614
