14
butane_opt
C  -3.944651   0.275039   0.041016
C  -2.687116  -0.633297   0.009840
H  -4.809117  -0.286408   0.091073
H  -3.992378   0.852382  -0.835279
H  -3.936108   0.995187   0.943651
C  -1.410604   0.175437  -0.023790
H  -2.761389  -1.289658  -0.812139
H  -2.697285  -1.317100   0.940448
C  -0.166350  -0.679687   0.059862
H  -1.426994   0.826876   0.805242
H  -1.360258   0.845345  -0.957834
H  -0.232471  -1.247345   0.927946
H   0.773531  -0.075496   0.153725
H  -0.090553  -1.415072  -0.862902
