14
butane_opt
C  -3.949866   0.280687  -0.034714
C  -2.709143  -0.643034   0.093795
H  -4.776151  -0.213929   0.069082
H  -4.044569   0.968873  -0.914610
H  -4.006590   0.908680   0.768828
C  -1.390745   0.162197   0.036440
H  -2.615205  -1.273332  -0.680430
H  -2.847857  -1.373620   1.113044
C  -0.152650  -0.664920  -0.011323
H  -1.339739   0.897785   0.939803
H  -1.434157   0.752698  -0.836500
H  -0.145650  -1.127139   0.774583
H   0.753836  -0.091539   0.209302
H  -0.156141  -1.532460  -1.024772
