14
butane_opt
C  -3.941936   0.272322  -0.006314
C  -2.693941  -0.608288   0.097025
H  -4.829609  -0.284435  -0.086441
H  -3.881930   0.955031  -1.010152
H  -3.997637   0.860376   0.792134
C  -1.406915   0.157535   0.044584
H  -2.623951  -1.310772  -0.755209
H  -2.724473  -1.326122   0.989956
C  -0.168455  -0.674725  -0.009183
H  -1.387918   0.811838   0.868227
H  -1.457015   0.748479  -0.828808
H  -0.165196  -1.149700   0.807973
H   0.742020  -0.064653   0.088167
H  -0.175992  -1.457248  -0.956766
