butane_opt
 OpenBabel08242015413D

 14 13  0  0  0  0  0  0  0  0999 V2000
   -3.9499    0.2807   -0.0347 C   0  0  0  0  0  0  0  0  0  0  0  0
   -2.7091   -0.6430    0.0938 C   0  0  0  0  0  0  0  0  0  0  0  0
   -4.7762   -0.2139    0.0691 H   0  0  0  0  0  0  0  0  0  0  0  0
   -4.0446    0.9689   -0.9146 H   0  0  0  0  0  0  0  0  0  0  0  0
   -4.0066    0.9087    0.7688 H   0  0  0  0  0  0  0  0  0  0  0  0
   -1.3907    0.1622    0.0364 C   0  0  0  0  0  0  0  0  0  0  0  0
   -2.6152   -1.2733   -0.6804 H   0  0  0  0  0  0  0  0  0  0  0  0
   -2.8479   -1.3736    1.1130 H   0  0  0  0  0  0  0  0  0  0  0  0
   -0.1527   -0.6649   -0.0113 C   0  0  0  0  0  0  0  0  0  0  0  0
   -1.3397    0.8978    0.9398 H   0  0  0  0  0  0  0  0  0  0  0  0
   -1.4342    0.7527   -0.8365 H   0  0  0  0  0  0  0  0  0  0  0  0
   -0.1457   -1.1271    0.7746 H   0  0  0  0  0  0  0  0  0  0  0  0
    0.7538   -0.0915    0.2093 H   0  0  0  0  0  0  0  0  0  0  0  0
   -0.1561   -1.5325   -1.0248 H   0  0  0  0  0  0  0  0  0  0  0  0
  1  3  1  0  0  0  0
  1  2  1  0  0  0  0
  1  5  1  0  0  0  0
  2  8  1  0  0  0  0
  4  1  1  0  0  0  0
  6  2  1  0  0  0  0
  6 10  1  0  0  0  0
  7  2  1  0  0  0  0
  9  6  1  0  0  0  0
  9 13  1  0  0  0  0
  9 12  1  0  0  0  0
 11  6  1  0  0  0  0
 14  9  1  0  0  0  0
M  END
$$$$
