butane_opt
 OpenBabel08242015413D

 14 13  0  0  0  0  0  0  0  0999 V2000
   -3.9351    0.2898    0.0468 C   0  0  0  0  0  0  0  0  0  0  0  0
   -2.6902   -0.6477    0.0263 C   0  0  0  0  0  0  0  0  0  0  0  0
   -4.8376   -0.3028   -0.1763 H   0  0  0  0  0  0  0  0  0  0  0  0
   -3.8931    0.7374   -0.7431 H   0  0  0  0  0  0  0  0  0  0  0  0
   -4.0425    1.1124    0.9955 H   0  0  0  0  0  0  0  0  0  0  0  0
   -1.3950    0.1756   -0.0296 C   0  0  0  0  0  0  0  0  0  0  0  0
   -2.7961   -1.3782   -0.8824 H   0  0  0  0  0  0  0  0  0  0  0  0
   -2.5977   -1.2542    0.8854 H   0  0  0  0  0  0  0  0  0  0  0  0
   -0.1965   -0.6742    0.0669 C   0  0  0  0  0  0  0  0  0  0  0  0
   -1.4043    0.8410    0.8576 H   0  0  0  0  0  0  0  0  0  0  0  0
   -1.3665    0.8359   -0.9561 H   0  0  0  0  0  0  0  0  0  0  0  0
   -0.1317   -1.4828    1.0278 H   0  0  0  0  0  0  0  0  0  0  0  0
    0.7690   -0.0214   -0.1420 H   0  0  0  0  0  0  0  0  0  0  0  0
   -0.1451   -1.2657   -0.7346 H   0  0  0  0  0  0  0  0  0  0  0  0
  1  5  1  0  0  0  0
  2  1  1  0  0  0  0
  2  8  1  0  0  0  0
  3  1  1  0  0  0  0
  4  1  1  0  0  0  0
  6  2  1  0  0  0  0
  6  9  1  0  0  0  0
  6 10  1  0  0  0  0
  7  2  1  0  0  0  0
  9 12  1  0  0  0  0
 11  6  1  0  0  0  0
 13  9  1  0  0  0  0
 14  9  1  0  0  0  0
M  END
$$$$
