14
butane_opt
C  -3.904620   0.243370   0.052787
C  -2.688107  -0.587607   0.022000
H  -4.851435  -0.375127  -0.062898
H  -3.863730   0.665085  -0.718843
H  -4.059347   1.049198   0.983049
C  -1.426514   0.209920  -0.045173
H  -2.820684  -1.325342  -0.915560
H  -2.707215  -1.179760   0.919783
C  -0.170723  -0.710896   0.068290
H  -1.497553   0.856134   0.759262
H  -1.363288   0.845957  -0.969646
H  -0.143040  -1.394325   0.998641
H   0.703207  -0.145429  -0.011650
H  -0.122550  -1.338088  -0.694616
