butane_opt
 OpenBabel08242015413D

 14 13  0  0  0  0  0  0  0  0999 V2000
   -3.9350    0.2425    0.0305 C   0  0  0  0  0  0  0  0  0  0  0  0
   -2.7020   -0.5866    0.0080 C   0  0  0  0  0  0  0  0  0  0  0  0
   -4.8318   -0.3549    0.2390 H   0  0  0  0  0  0  0  0  0  0  0  0
   -3.9629    0.9478   -0.8702 H   0  0  0  0  0  0  0  0  0  0  0  0
   -3.7960    0.7837    0.8310 H   0  0  0  0  0  0  0  0  0  0  0  0
   -1.4261    0.2065    0.0055 C   0  0  0  0  0  0  0  0  0  0  0  0
   -2.7768   -1.3985   -0.9561 H   0  0  0  0  0  0  0  0  0  0  0  0
   -2.6707   -1.1105    0.8144 H   0  0  0  0  0  0  0  0  0  0  0  0
   -0.1679   -0.7065    0.0578 C   0  0  0  0  0  0  0  0  0  0  0  0
   -1.3225    0.8897    0.8449 H   0  0  0  0  0  0  0  0  0  0  0  0
   -1.3952    0.8665   -0.8640 H   0  0  0  0  0  0  0  0  0  0  0  0
   -0.1302   -1.4329    1.0109 H   0  0  0  0  0  0  0  0  0  0  0  0
    0.7170   -0.1841   -0.0733 H   0  0  0  0  0  0  0  0  0  0  0  0
   -0.0810   -1.3508   -0.7639 H   0  0  0  0  0  0  0  0  0  0  0  0
  1  3  1  0  0  0  0
  1  5  1  0  0  0  0
  2  1  1  0  0  0  0
  2  8  1  0  0  0  0
  4  1  1  0  0  0  0
  6  2  1  0  0  0  0
  6  9  1  0  0  0  0
  6 10  1  0  0  0  0
  7  2  1  0  0  0  0
  9 12  1  0  0  0  0
 11  6  1  0  0  0  0
 13  9  1  0  0  0  0
 14  9  1  0  0  0  0
M  END
$$$$
