14
butane_opt
C  -3.943194   0.256916   0.038111
C  -2.703496  -0.616795   0.033877
H  -4.849909  -0.316001  -0.111907
H  -3.960480   0.787469  -0.804965
H  -4.030383   1.037797   0.973089
C  -1.396288   0.194009  -0.015006
H  -2.761957  -1.284483  -0.817121
H  -2.727392  -1.208227   0.866633
C  -0.153050  -0.695806   0.047658
H  -1.417311   0.868344   0.828142
H  -1.382465   0.830601  -0.921468
H  -0.144153  -1.412643   0.996326
H   0.738823  -0.140117  -0.041682
H  -0.129854  -1.299266  -0.768678
