14
butane_opt
C  -3.932091   0.241313   0.064733
C  -2.720497  -0.608634   0.018670
H  -4.897484  -0.426624  -0.127946
H  -3.859034   0.693729  -0.738617
H  -4.100870   1.162884   1.027912
C  -1.418354   0.229294  -0.053464
H  -2.786468  -1.332393  -0.868545
H  -2.621888  -1.172322   0.817965
C  -0.138106  -0.713567   0.082535
H  -1.406864   0.814665   0.718930
H  -1.432248   0.892220  -0.998217
H  -0.049665  -1.392044   1.023963
H   0.720941  -0.194707  -0.009222
H  -0.063336  -1.313952  -0.718248
