butane_opt
 OpenBabel08242015413D

 14 13  0  0  0  0  0  0  0  0999 V2000
   -3.9046    0.2434    0.0528 C   0  0  0  0  0  0  0  0  0  0  0  0
   -2.6881   -0.5876    0.0220 C   0  0  0  0  0  0  0  0  0  0  0  0
   -4.8514   -0.3751   -0.0629 H   0  0  0  0  0  0  0  0  0  0  0  0
   -3.8637    0.6651   -0.7188 H   0  0  0  0  0  0  0  0  0  0  0  0
   -4.0593    1.0492    0.9830 H   0  0  0  0  0  0  0  0  0  0  0  0
   -1.4265    0.2099   -0.0452 C   0  0  0  0  0  0  0  0  0  0  0  0
   -2.8207   -1.3253   -0.9156 H   0  0  0  0  0  0  0  0  0  0  0  0
   -2.7072   -1.1798    0.9198 H   0  0  0  0  0  0  0  0  0  0  0  0
   -0.1707   -0.7109    0.0683 C   0  0  0  0  0  0  0  0  0  0  0  0
   -1.4976    0.8561    0.7593 H   0  0  0  0  0  0  0  0  0  0  0  0
   -1.3633    0.8460   -0.9696 H   0  0  0  0  0  0  0  0  0  0  0  0
   -0.1430   -1.3943    0.9986 H   0  0  0  0  0  0  0  0  0  0  0  0
    0.7032   -0.1454   -0.0117 H   0  0  0  0  0  0  0  0  0  0  0  0
   -0.1226   -1.3381   -0.6946 H   0  0  0  0  0  0  0  0  0  0  0  0
  1  5  1  0  0  0  0
  2  1  1  0  0  0  0
  2  8  1  0  0  0  0
  3  1  1  0  0  0  0
  4  1  1  0  0  0  0
  6  2  1  0  0  0  0
  6  9  1  0  0  0  0
  6 10  1  0  0  0  0
  7  2  1  0  0  0  0
  9 12  1  0  0  0  0
 11  6  1  0  0  0  0
 13  9  1  0  0  0  0
 14  9  1  0  0  0  0
M  END
$$$$
