butane_opt
 OpenBabel08242015413D

 14 13  0  0  0  0  0  0  0  0999 V2000
   -3.9128    0.2524   -0.0193 C   0  0  0  0  0  0  0  0  0  0  0  0
   -2.7036   -0.5856    0.1002 C   0  0  0  0  0  0  0  0  0  0  0  0
   -4.8522   -0.3933   -0.2072 H   0  0  0  0  0  0  0  0  0  0  0  0
   -3.8414    0.7857   -0.8854 H   0  0  0  0  0  0  0  0  0  0  0  0
   -4.0725    0.9450    0.8324 H   0  0  0  0  0  0  0  0  0  0  0  0
   -1.4011    0.1950    0.0489 C   0  0  0  0  0  0  0  0  0  0  0  0
   -2.6572   -1.2294   -0.7196 H   0  0  0  0  0  0  0  0  0  0  0  0
   -2.7792   -1.3120    1.1176 H   0  0  0  0  0  0  0  0  0  0  0  0
   -0.1848   -0.7080   -0.0060 C   0  0  0  0  0  0  0  0  0  0  0  0
   -1.4109    0.8642    0.8809 H   0  0  0  0  0  0  0  0  0  0  0  0
   -1.4179    0.8678   -0.8727 H   0  0  0  0  0  0  0  0  0  0  0  0
   -0.0691   -1.2300    0.7889 H   0  0  0  0  0  0  0  0  0  0  0  0
    0.6962   -0.1551   -0.0012 H   0  0  0  0  0  0  0  0  0  0  0  0
   -0.1772   -1.4782   -0.9861 H   0  0  0  0  0  0  0  0  0  0  0  0
  1  2  1  0  0  0  0
  1  5  1  0  0  0  0
  2  8  1  0  0  0  0
  3  1  1  0  0  0  0
  4  1  1  0  0  0  0
  6  2  1  0  0  0  0
  6 10  1  0  0  0  0
  7  2  1  0  0  0  0
  9 13  1  0  0  0  0
  9  6  1  0  0  0  0
  9 12  1  0  0  0  0
 11  6  1  0  0  0  0
 14  9  1  0  0  0  0
M  END
$$$$
