14
butane_opt
C  -3.946022   0.256998   0.050151
C  -2.718909  -0.619258  -0.033278
H  -4.839235  -0.333700   0.032007
H  -3.993501   0.722653  -0.769154
H  -3.940236   1.029455   1.032651
C  -1.418607   0.223806  -0.003722
H  -2.751840  -1.334782  -0.848174
H  -2.754443  -1.193963   0.828614
C  -0.133545  -0.720515   0.071304
H  -1.344759   0.866836   0.827898
H  -1.427047   0.844629  -0.892216
H  -0.000566  -1.548406   1.100960
H   0.765625  -0.139081  -0.248368
H  -0.133181  -1.064498  -0.591690
