14
butane_opt
C  -3.951503   0.287885   0.039100
C  -2.681951  -0.634785  -0.006468
H  -4.878201  -0.331674   0.075440
H  -3.961742   0.758746  -0.756525
H  -3.888624   1.085741   1.019753
C  -1.398047   0.146741  -0.019406
H  -2.683883  -1.269648  -0.859452
H  -2.704778  -1.194611   0.873275
C  -0.178619  -0.672868   0.066812
H  -1.398143   0.826607   0.813887
H  -1.349733   0.787640  -0.927315
H  -0.171072  -1.408163   1.081753
H   0.717760  -0.071578  -0.090778
H  -0.192551  -1.184680  -0.717961
