14
butane_opt
C  -3.924297   0.268160   0.023792
C  -2.693001  -0.618782   0.008706
H  -4.809249  -0.260891   0.027145
H  -4.018806   0.797633  -0.754385
H  -3.945992   0.984362   0.933711
C  -1.411300   0.181314   0.031374
H  -2.666943  -1.383456  -0.931057
H  -2.735805  -1.175253   0.837466
C  -0.174141  -0.693765   0.046399
H  -1.402170   0.789971   0.865630
H  -1.307881   0.872256  -0.935811
H  -0.170051  -1.517026   1.075209
H   0.765407  -0.057022  -0.292778
H  -0.295450  -1.158206  -0.685942
