14
butane_opt
C  -3.956587   0.262812  -0.032273
C  -2.724278  -0.606705   0.102908
H  -4.834890  -0.271232  -0.012837
H  -3.949653   0.879426  -0.987721
H  -3.926340   0.864971   0.798914
C  -1.411620   0.185723   0.065089
H  -2.734063  -1.223969  -0.693110
H  -2.778762  -1.263089   1.032739
C  -0.129119  -0.702802  -0.019445
H  -1.316333   0.781623   0.837311
H  -1.404459   0.867949  -0.866655
H  -0.154073  -1.150647   0.767779
H   0.802123  -0.054735   0.172257
H  -0.081351  -1.568331  -1.028346
