14
butane_opt
C  -3.949424   0.263193  -0.002363
C  -2.691273  -0.622082   0.038756
H  -4.843281  -0.276211   0.245999
H  -4.099713   1.055282  -1.001125
H  -3.894552   0.775840   0.730210
C  -1.407151   0.175106   0.032188
H  -2.657208  -1.302904  -0.770264
H  -2.685804  -1.280869   0.943898
C  -0.157865  -0.693203   0.013517
H  -1.307052   1.006556   1.010698
H  -1.470430   0.759589  -0.811229
H  -0.190455  -1.260067   0.907309
H   0.808844  -0.070195   0.089802
H  -0.212810  -1.353146  -0.902098
