14
butane_opt
C  -3.929228   0.238842  -0.013653
C  -2.712161  -0.581221   0.076429
H  -4.812964  -0.342683   0.226333
H  -4.002097   1.099775  -1.079428
H  -3.805562   0.679137   0.693974
C  -1.418670   0.205810   0.051482
H  -2.741526  -1.387157  -0.820370
H  -2.768586  -1.164695   0.926370
C  -0.155647  -0.714821  -0.008149
H  -1.378682   0.944672   0.961502
H  -1.380243   0.807118  -0.817612
H  -0.152229  -1.218355   0.817447
H   0.711283  -0.188329   0.091350
H  -0.097576  -1.476983  -0.875398
