butane_opt
 OpenBabel08242015413D

 14 13  0  0  0  0  0  0  0  0999 V2000
   -3.9292    0.2388   -0.0137 C   0  0  0  0  0  0  0  0  0  0  0  0
   -2.7122   -0.5812    0.0764 C   0  0  0  0  0  0  0  0  0  0  0  0
   -4.8130   -0.3427    0.2263 H   0  0  0  0  0  0  0  0  0  0  0  0
   -4.0021    1.0998   -1.0794 H   0  0  0  0  0  0  0  0  0  0  0  0
   -3.8056    0.6791    0.6940 H   0  0  0  0  0  0  0  0  0  0  0  0
   -1.4187    0.2058    0.0515 C   0  0  0  0  0  0  0  0  0  0  0  0
   -2.7415   -1.3872   -0.8204 H   0  0  0  0  0  0  0  0  0  0  0  0
   -2.7686   -1.1647    0.9264 H   0  0  0  0  0  0  0  0  0  0  0  0
   -0.1556   -0.7148   -0.0081 C   0  0  0  0  0  0  0  0  0  0  0  0
   -1.3787    0.9447    0.9615 H   0  0  0  0  0  0  0  0  0  0  0  0
   -1.3802    0.8071   -0.8176 H   0  0  0  0  0  0  0  0  0  0  0  0
   -0.1522   -1.2184    0.8174 H   0  0  0  0  0  0  0  0  0  0  0  0
    0.7113   -0.1883    0.0914 H   0  0  0  0  0  0  0  0  0  0  0  0
   -0.0976   -1.4770   -0.8754 H   0  0  0  0  0  0  0  0  0  0  0  0
  1  2  1  0  0  0  0
  1  3  1  0  0  0  0
  1  5  1  0  0  0  0
  2  8  1  0  0  0  0
  4  1  1  0  0  0  0
  6  2  1  0  0  0  0
  6 10  1  0  0  0  0
  7  2  1  0  0  0  0
  9  6  1  0  0  0  0
  9 13  1  0  0  0  0
  9 12  1  0  0  0  0
 11  6  1  0  0  0  0
 14  9  1  0  0  0  0
M  END
$$$$
