14
butane_opt
C  -3.957894   0.275720  -0.008720
C  -2.694934  -0.619171   0.045584
H  -4.865341  -0.298625   0.192204
H  -4.046907   0.996801  -0.974674
H  -3.964851   0.827520   0.766399
C  -1.392330   0.169793   0.051064
H  -2.677081  -1.281840  -0.810892
H  -2.731980  -1.330750   0.984505
C  -0.164367  -0.684214   0.009761
H  -1.298215   0.875624   0.922140
H  -1.376992   0.763558  -0.812667
H  -0.126462  -1.240717   0.847271
H   0.750695  -0.080705   0.021431
H  -0.169937  -1.400815  -0.877640
