butane_opt
 OpenBabel08242015413D

 14 13  0  0  0  0  0  0  0  0999 V2000
   -3.9254    0.2851    0.0118 C   0  0  0  0  0  0  0  0  0  0  0  0
   -2.6791   -0.6448    0.0473 C   0  0  0  0  0  0  0  0  0  0  0  0
   -4.8194   -0.2722    0.2291 H   0  0  0  0  0  0  0  0  0  0  0  0
   -4.1107    1.1212   -1.0121 H   0  0  0  0  0  0  0  0  0  0  0  0
   -3.9082    0.7567    0.7063 H   0  0  0  0  0  0  0  0  0  0  0  0
   -1.3990    0.1685    0.0343 C   0  0  0  0  0  0  0  0  0  0  0  0
   -2.6812   -1.3775   -0.8946 H   0  0  0  0  0  0  0  0  0  0  0  0
   -2.7682   -1.1616    0.8784 H   0  0  0  0  0  0  0  0  0  0  0  0
   -0.1886   -0.6832    0.0174 C   0  0  0  0  0  0  0  0  0  0  0  0
   -1.3388    0.8576    0.8924 H   0  0  0  0  0  0  0  0  0  0  0  0
   -1.3995    0.7194   -0.7890 H   0  0  0  0  0  0  0  0  0  0  0  0
   -0.2575   -1.2411    0.8941 H   0  0  0  0  0  0  0  0  0  0  0  0
    0.7673   -0.0310    0.0307 H   0  0  0  0  0  0  0  0  0  0  0  0
   -0.1981   -1.3425   -0.8469 H   0  0  0  0  0  0  0  0  0  0  0  0
  1  2  1  0  0  0  0
  1  3  1  0  0  0  0
  1  5  1  0  0  0  0
  2  8  1  0  0  0  0
  4  1  1  0  0  0  0
  6  2  1  0  0  0  0
  6 10  1  0  0  0  0
  7  2  1  0  0  0  0
  9 13  1  0  0  0  0
  9  6  1  0  0  0  0
  9 12  1  0  0  0  0
 11  6  1  0  0  0  0
 14  9  1  0  0  0  0
M  END
$$$$
