butane_opt
 OpenBabel08242015413D

 14 13  0  0  0  0  0  0  0  0999 V2000
   -3.9519    0.2742    0.0379 C   0  0  0  0  0  0  0  0  0  0  0  0
   -2.6767   -0.6291   -0.0012 C   0  0  0  0  0  0  0  0  0  0  0  0
   -4.8172   -0.2823    0.0575 H   0  0  0  0  0  0  0  0  0  0  0  0
   -4.0375    0.8476   -0.8643 H   0  0  0  0  0  0  0  0  0  0  0  0
   -3.8813    1.0269    0.9926 H   0  0  0  0  0  0  0  0  0  0  0  0
   -1.4156    0.1513   -0.0100 C   0  0  0  0  0  0  0  0  0  0  0  0
   -2.6394   -1.3297   -0.8369 H   0  0  0  0  0  0  0  0  0  0  0  0
   -2.6995   -1.2104    0.8744 H   0  0  0  0  0  0  0  0  0  0  0  0
   -0.1738   -0.6803    0.0618 C   0  0  0  0  0  0  0  0  0  0  0  0
   -1.3915    0.9251    0.8786 H   0  0  0  0  0  0  0  0  0  0  0  0
   -1.3726    0.7936   -0.8865 H   0  0  0  0  0  0  0  0  0  0  0  0
   -0.1815   -1.4487    1.0462 H   0  0  0  0  0  0  0  0  0  0  0  0
    0.8580    0.0123   -0.1374 H   0  0  0  0  0  0  0  0  0  0  0  0
   -0.2560   -1.1825   -0.7255 H   0  0  0  0  0  0  0  0  0  0  0  0
  1  3  1  0  0  0  0
  1  5  1  0  0  0  0
  2  1  1  0  0  0  0
  2  8  1  0  0  0  0
  4  1  1  0  0  0  0
  6  2  1  0  0  0  0
  6  9  1  0  0  0  0
  6 10  1  0  0  0  0
  7  2  1  0  0  0  0
  9 12  1  0  0  0  0
 11  6  1  0  0  0  0
 13  9  1  0  0  0  0
 14  9  1  0  0  0  0
M  END
$$$$
