butane_opt
 OpenBabel08242015413D

 14 13  0  0  0  0  0  0  0  0999 V2000
   -3.9690    0.2784    0.0741 C   0  0  0  0  0  0  0  0  0  0  0  0
   -2.6807   -0.6417   -0.0304 C   0  0  0  0  0  0  0  0  0  0  0  0
   -4.8631   -0.2591    0.3099 H   0  0  0  0  0  0  0  0  0  0  0  0
   -4.1588    0.9478   -0.8337 H   0  0  0  0  0  0  0  0  0  0  0  0
   -3.9381    0.9650    0.9370 H   0  0  0  0  0  0  0  0  0  0  0  0
   -1.3948    0.1593   -0.0526 C   0  0  0  0  0  0  0  0  0  0  0  0
   -2.8037   -1.4053   -1.0077 H   0  0  0  0  0  0  0  0  0  0  0  0
   -2.6695   -1.2027    0.7983 H   0  0  0  0  0  0  0  0  0  0  0  0
   -0.1435   -0.6677    0.0969 C   0  0  0  0  0  0  0  0  0  0  0  0
   -1.4267    0.7978    0.7331 H   0  0  0  0  0  0  0  0  0  0  0  0
   -1.3429    0.8411   -0.9663 H   0  0  0  0  0  0  0  0  0  0  0  0
   -0.2754   -1.3019    1.0530 H   0  0  0  0  0  0  0  0  0  0  0  0
    0.7901   -0.0650    0.1469 H   0  0  0  0  0  0  0  0  0  0  0  0
   -0.0791   -1.3276   -0.7802 H   0  0  0  0  0  0  0  0  0  0  0  0
  1  3  1  0  0  0  0
  1  5  1  0  0  0  0
  2  1  1  0  0  0  0
  2  8  1  0  0  0  0
  4  1  1  0  0  0  0
  6  2  1  0  0  0  0
  6  9  1  0  0  0  0
  6 10  1  0  0  0  0
  7  2  1  0  0  0  0
  9 13  1  0  0  0  0
  9 12  1  0  0  0  0
 11  6  1  0  0  0  0
 14  9  1  0  0  0  0
M  END
$$$$
