14
butane_opt
C  -3.951861   0.274161   0.037918
C  -2.676713  -0.629060  -0.001201
H  -4.817192  -0.282341   0.057499
H  -4.037492   0.847637  -0.864278
H  -3.881333   1.026948   0.992600
C  -1.415567   0.151285  -0.009980
H  -2.639387  -1.329651  -0.836884
H  -2.699490  -1.210370   0.874440
C  -0.173797  -0.680291   0.061789
H  -1.391480   0.925097   0.878641
H  -1.372557   0.793581  -0.886517
H  -0.181497  -1.448687   1.046157
H   0.858013   0.012304  -0.137366
H  -0.256014  -1.182494  -0.725542
