14
butane_opt
C  -3.917371   0.246169  -0.028453
C  -2.685040  -0.596657   0.076048
H  -4.886586  -0.422354  -0.080033
H  -3.916799   0.920934  -1.007503
H  -3.989365   0.811039   0.790168
C  -1.425129   0.202637   0.090439
H  -2.761145  -1.192176  -0.761893
H  -2.683082  -1.245077   0.976195
C  -0.177789  -0.703600  -0.026370
H  -1.365950   1.052084   1.059536
H  -1.444014   0.738733  -0.753444
H   0.027198  -1.509228   0.958221
H   0.678878  -0.177358  -0.254784
H  -0.205401  -1.244343  -0.832547
