butane_opt
 OpenBabel08242015413D

 14 13  0  0  0  0  0  0  0  0999 V2000
   -3.9456    0.2508   -0.0080 C   0  0  0  0  0  0  0  0  0  0  0  0
   -2.7084   -0.6056    0.0771 C   0  0  0  0  0  0  0  0  0  0  0  0
   -4.8304   -0.3533   -0.0663 H   0  0  0  0  0  0  0  0  0  0  0  0
   -3.9013    0.8444   -0.9068 H   0  0  0  0  0  0  0  0  0  0  0  0
   -3.9975    0.9501    0.8579 H   0  0  0  0  0  0  0  0  0  0  0  0
   -1.4070    0.2113    0.0344 C   0  0  0  0  0  0  0  0  0  0  0  0
   -2.7361   -1.2783   -0.7855 H   0  0  0  0  0  0  0  0  0  0  0  0
   -2.7305   -1.2801    0.9941 H   0  0  0  0  0  0  0  0  0  0  0  0
   -0.1473   -0.7104    0.0105 C   0  0  0  0  0  0  0  0  0  0  0  0
   -1.4000    0.8639    0.8813 H   0  0  0  0  0  0  0  0  0  0  0  0
   -1.4204    0.8530   -0.8799 H   0  0  0  0  0  0  0  0  0  0  0  0
   -0.0480   -1.2626    0.8560 H   0  0  0  0  0  0  0  0  0  0  0  0
    0.7323   -0.1470    0.0028 H   0  0  0  0  0  0  0  0  0  0  0  0
   -0.1846   -1.4162   -0.8838 H   0  0  0  0  0  0  0  0  0  0  0  0
  1  2  1  0  0  0  0
  1  5  1  0  0  0  0
  2  8  1  0  0  0  0
  3  1  1  0  0  0  0
  4  1  1  0  0  0  0
  6  2  1  0  0  0  0
  6 10  1  0  0  0  0
  7  2  1  0  0  0  0
  9  6  1  0  0  0  0
  9 12  1  0  0  0  0
 11  6  1  0  0  0  0
 13  9  1  0  0  0  0
 14  9  1  0  0  0  0
M  END
$$$$
