14
butane_opt
C  -3.968993   0.278417   0.074098
C  -2.680667  -0.641696  -0.030399
H  -4.863101  -0.259140   0.309850
H  -4.158844   0.947784  -0.833724
H  -3.938097   0.965036   0.936956
C  -1.394832   0.159310  -0.052633
H  -2.803714  -1.405293  -1.007679
H  -2.669498  -1.202673   0.798323
C  -0.143532  -0.667686   0.096914
H  -1.426724   0.797752   0.733069
H  -1.342881   0.841073  -0.966268
H  -0.275381  -1.301873   1.052952
H   0.790065  -0.064976   0.146896
H  -0.079094  -1.327611  -0.780153
