14
butane_opt
C  -3.918838   0.246355  -0.042421
C  -2.706636  -0.599103   0.125166
H  -4.811757  -0.338087  -0.201822
H  -3.809750   0.771224  -0.930128
H  -4.016190   0.990012   0.875174
C  -1.405510   0.216862   0.055820
H  -2.646031  -1.184368  -0.674114
H  -2.880003  -1.282256   1.063844
C  -0.171286  -0.713889  -0.028205
H  -1.382122   0.918097   0.935282
H  -1.531701   0.747454  -0.801341
H  -0.068209  -1.341423   0.862864
H   0.748973  -0.100380  -0.044061
H  -0.204185  -1.451752  -0.953260
