butane_opt
 OpenBabel08242015413D

 14 13  0  0  0  0  0  0  0  0999 V2000
   -3.9528    0.2726   -0.0304 C   0  0  0  0  0  0  0  0  0  0  0  0
   -2.6758   -0.6212    0.0970 C   0  0  0  0  0  0  0  0  0  0  0  0
   -4.9197   -0.3646   -0.1277 H   0  0  0  0  0  0  0  0  0  0  0  0
   -3.8722    0.8229   -0.9269 H   0  0  0  0  0  0  0  0  0  0  0  0
   -4.0269    1.0203    0.8917 H   0  0  0  0  0  0  0  0  0  0  0  0
   -1.4040    0.1759    0.0449 C   0  0  0  0  0  0  0  0  0  0  0  0
   -2.6899   -1.2026   -0.6512 H   0  0  0  0  0  0  0  0  0  0  0  0
   -2.6952   -1.3019    1.0281 H   0  0  0  0  0  0  0  0  0  0  0  0
   -0.1659   -0.6887   -0.0265 C   0  0  0  0  0  0  0  0  0  0  0  0
   -1.2904    0.8718    0.9408 H   0  0  0  0  0  0  0  0  0  0  0  0
   -1.4741    0.7369   -0.7959 H   0  0  0  0  0  0  0  0  0  0  0  0
   -0.2160   -1.2645    0.8763 H   0  0  0  0  0  0  0  0  0  0  0  0
    0.7569   -0.1041    0.0399 H   0  0  0  0  0  0  0  0  0  0  0  0
   -0.2032   -1.3533   -0.8493 H   0  0  0  0  0  0  0  0  0  0  0  0
  1  2  1  0  0  0  0
  1  5  1  0  0  0  0
  2  8  1  0  0  0  0
  3  1  1  0  0  0  0
  4  1  1  0  0  0  0
  6  2  1  0  0  0  0
  6 10  1  0  0  0  0
  7  2  1  0  0  0  0
  9 13  1  0  0  0  0
  9  6  1  0  0  0  0
  9 12  1  0  0  0  0
 11  6  1  0  0  0  0
 14  9  1  0  0  0  0
M  END
$$$$
