14
butane_opt
C  -3.925394   0.285137   0.011824
C  -2.679114  -0.644828   0.047278
H  -4.819417  -0.272210   0.229053
H  -4.110661   1.121165  -1.012137
H  -3.908161   0.756695   0.706321
C  -1.399034   0.168486   0.034276
H  -2.681153  -1.377520  -0.894618
H  -2.768183  -1.161636   0.878437
C  -0.188646  -0.683197   0.017449
H  -1.338817   0.857643   0.892389
H  -1.399528   0.719415  -0.788978
H  -0.257494  -1.241065   0.894126
H   0.767255  -0.031045   0.030744
H  -0.198145  -1.342477  -0.846853
