14
butane_opt
C  -3.946860   0.280223   0.050439
C  -2.696056  -0.637890  -0.014062
H  -4.833941  -0.263744  -0.008822
H  -4.036895   0.875249  -0.807309
H  -3.932902   1.048578   0.981729
C  -1.394091   0.145591  -0.003955
H  -2.748913  -1.291902  -0.918334
H  -2.684626  -1.224502   0.837742
C  -0.164639  -0.666871   0.076126
H  -1.413992   0.849044   0.863000
H  -1.351200   0.805392  -0.930968
H  -0.075884  -1.512063   1.066847
H   0.769100  -0.015045  -0.216737
H  -0.307243  -1.187486  -0.708355
