butane_opt
 OpenBabel08242015413D

 14 13  0  0  0  0  0  0  0  0999 V2000
   -3.9594    0.2479   -0.0380 C   0  0  0  0  0  0  0  0  0  0  0  0
   -2.7113   -0.5912    0.0925 C   0  0  0  0  0  0  0  0  0  0  0  0
   -4.9316   -0.3757   -0.0694 H   0  0  0  0  0  0  0  0  0  0  0  0
   -3.8835    0.8462   -0.9286 H   0  0  0  0  0  0  0  0  0  0  0  0
   -3.9737    0.9163    0.7884 H   0  0  0  0  0  0  0  0  0  0  0  0
   -1.4125    0.2001    0.0971 C   0  0  0  0  0  0  0  0  0  0  0  0
   -2.6766   -1.2696   -0.7749 H   0  0  0  0  0  0  0  0  0  0  0  0
   -2.8304   -1.2490    0.9659 H   0  0  0  0  0  0  0  0  0  0  0  0
   -0.1261   -0.7085   -0.0322 C   0  0  0  0  0  0  0  0  0  0  0  0
   -1.3488    0.8777    0.9503 H   0  0  0  0  0  0  0  0  0  0  0  0
   -1.4089    0.8544   -0.8163 H   0  0  0  0  0  0  0  0  0  0  0  0
    0.0828   -1.3862    0.9196 H   0  0  0  0  0  0  0  0  0  0  0  0
    0.6986   -0.2125   -0.1678 H   0  0  0  0  0  0  0  0  0  0  0  0
   -0.2320   -1.2667   -0.8414 H   0  0  0  0  0  0  0  0  0  0  0  0
  1  2  1  0  0  0  0
  1  5  1  0  0  0  0
  2  6  1  0  0  0  0
  2  8  1  0  0  0  0
  3  1  1  0  0  0  0
  4  1  1  0  0  0  0
  6 10  1  0  0  0  0
  7  2  1  0  0  0  0
  9  6  1  0  0  0  0
  9 12  1  0  0  0  0
 11  6  1  0  0  0  0
 13  9  1  0  0  0  0
 14  9  1  0  0  0  0
M  END
$$$$
