butane_opt
 OpenBabel08242015413D

 14 13  0  0  0  0  0  0  0  0999 V2000
   -3.9261    0.2479    0.0289 C   0  0  0  0  0  0  0  0  0  0  0  0
   -2.7086   -0.5860    0.0384 C   0  0  0  0  0  0  0  0  0  0  0  0
   -4.9382   -0.4106    0.1298 H   0  0  0  0  0  0  0  0  0  0  0  0
   -3.8808    0.8555   -0.8561 H   0  0  0  0  0  0  0  0  0  0  0  0
   -3.8936    0.8923    0.8676 H   0  0  0  0  0  0  0  0  0  0  0  0
   -1.4308    0.1860   -0.0227 C   0  0  0  0  0  0  0  0  0  0  0  0
   -2.6405   -1.2581   -0.8131 H   0  0  0  0  0  0  0  0  0  0  0  0
   -2.6510   -1.2432    0.9223 H   0  0  0  0  0  0  0  0  0  0  0  0
   -0.1526   -0.7030    0.0552 C   0  0  0  0  0  0  0  0  0  0  0  0
   -1.4653    0.8679    0.8147 H   0  0  0  0  0  0  0  0  0  0  0  0
   -1.3452    0.9415   -0.9572 H   0  0  0  0  0  0  0  0  0  0  0  0
   -0.1877   -1.1592    0.8439 H   0  0  0  0  0  0  0  0  0  0  0  0
    0.7225   -0.1407    0.1832 H   0  0  0  0  0  0  0  0  0  0  0  0
   -0.1108   -1.5853   -0.9091 H   0  0  0  0  0  0  0  0  0  0  0  0
  1  2  1  0  0  0  0
  1  3  1  0  0  0  0
  1  5  1  0  0  0  0
  2  8  1  0  0  0  0
  4  1  1  0  0  0  0
  6  2  1  0  0  0  0
  6  9  1  0  0  0  0
  6 10  1  0  0  0  0
  7  2  1  0  0  0  0
  9 13  1  0  0  0  0
  9 12  1  0  0  0  0
 11  6  1  0  0  0  0
 14  9  1  0  0  0  0
M  END
$$$$
