butane_opt
 OpenBabel08242015413D

 14 13  0  0  0  0  0  0  0  0999 V2000
   -3.9330    0.2816   -0.0088 C   0  0  0  0  0  0  0  0  0  0  0  0
   -2.6807   -0.6334    0.0775 C   0  0  0  0  0  0  0  0  0  0  0  0
   -4.7409   -0.2668    0.1064 H   0  0  0  0  0  0  0  0  0  0  0  0
   -3.9818    0.9024   -0.8727 H   0  0  0  0  0  0  0  0  0  0  0  0
   -4.0066    0.9226    0.8432 H   0  0  0  0  0  0  0  0  0  0  0  0
   -1.4237    0.1563    0.0082 C   0  0  0  0  0  0  0  0  0  0  0  0
   -2.6892   -1.3118   -0.7704 H   0  0  0  0  0  0  0  0  0  0  0  0
   -2.6876   -1.3228    1.0088 H   0  0  0  0  0  0  0  0  0  0  0  0
   -0.1881   -0.6704    0.0222 C   0  0  0  0  0  0  0  0  0  0  0  0
   -1.3800    0.8172    0.8050 H   0  0  0  0  0  0  0  0  0  0  0  0
   -1.3218    0.8371   -0.9294 H   0  0  0  0  0  0  0  0  0  0  0  0
   -0.2038   -1.0618    0.7693 H   0  0  0  0  0  0  0  0  0  0  0  0
    0.7791   -0.0300    0.2459 H   0  0  0  0  0  0  0  0  0  0  0  0
   -0.1032   -1.5533   -0.9742 H   0  0  0  0  0  0  0  0  0  0  0  0
  1  2  1  0  0  0  0
  1  3  1  0  0  0  0
  1  5  1  0  0  0  0
  2  8  1  0  0  0  0
  4  1  1  0  0  0  0
  6  9  1  0  0  0  0
  6  2  1  0  0  0  0
  6 10  1  0  0  0  0
  7  2  1  0  0  0  0
  9 13  1  0  0  0  0
  9 12  1  0  0  0  0
 11  6  1  0  0  0  0
 14  9  1  0  0  0  0
M  END
$$$$
