butane_opt
 OpenBabel08242015413D

 14 13  0  0  0  0  0  0  0  0999 V2000
   -3.9500    0.2637   -0.0301 C   0  0  0  0  0  0  0  0  0  0  0  0
   -2.6942   -0.6139    0.0758 C   0  0  0  0  0  0  0  0  0  0  0  0
   -4.8378   -0.2754    0.1250 H   0  0  0  0  0  0  0  0  0  0  0  0
   -4.0342    0.9180   -0.9407 H   0  0  0  0  0  0  0  0  0  0  0  0
   -3.9952    0.8705    0.7626 H   0  0  0  0  0  0  0  0  0  0  0  0
   -1.3958    0.1864    0.0565 C   0  0  0  0  0  0  0  0  0  0  0  0
   -2.7148   -1.2433   -0.7171 H   0  0  0  0  0  0  0  0  0  0  0  0
   -2.8399   -1.3643    1.0516 H   0  0  0  0  0  0  0  0  0  0  0  0
   -0.1570   -0.6947   -0.0187 C   0  0  0  0  0  0  0  0  0  0  0  0
   -1.3658    0.8911    0.9542 H   0  0  0  0  0  0  0  0  0  0  0  0
   -1.3849    0.8254   -0.8118 H   0  0  0  0  0  0  0  0  0  0  0  0
   -0.1421   -1.2066    0.8387 H   0  0  0  0  0  0  0  0  0  0  0  0
    0.7706   -0.1176    0.1252 H   0  0  0  0  0  0  0  0  0  0  0  0
   -0.1174   -1.4657   -0.9618 H   0  0  0  0  0  0  0  0  0  0  0  0
  1  2  1  0  0  0  0
  1  3  1  0  0  0  0
  1  5  1  0  0  0  0
  2  8  1  0  0  0  0
  4  1  1  0  0  0  0
  6  2  1  0  0  0  0
  6 10  1  0  0  0  0
  7  2  1  0  0  0  0
  9  6  1  0  0  0  0
  9 13  1  0  0  0  0
  9 12  1  0  0  0  0
 11  6  1  0  0  0  0
 14  9  1  0  0  0  0
M  END
$$$$
