14
butane_opt
C  -3.950002   0.263726  -0.030148
C  -2.694227  -0.613872   0.075757
H  -4.837784  -0.275405   0.125001
H  -4.034222   0.918035  -0.940749
H  -3.995233   0.870458   0.762601
C  -1.395803   0.186367   0.056530
H  -2.714818  -1.243342  -0.717093
H  -2.839886  -1.364313   1.051562
C  -0.157043  -0.694712  -0.018651
H  -1.365801   0.891123   0.954158
H  -1.384904   0.825370  -0.811791
H  -0.142132  -1.206553   0.838666
H   0.770621  -0.117583   0.125176
H  -0.117401  -1.465720  -0.961843
