14
butane_opt
C  -3.963267   0.278577   0.045005
C  -2.699425  -0.629739  -0.014538
H  -4.902428  -0.304085   0.185761
H  -4.132265   1.070713  -0.927581
H  -3.858044   0.835033   0.842007
C  -1.379713   0.175761   0.002950
H  -2.762295  -1.359220  -0.865821
H  -2.703242  -1.277616   0.905806
C  -0.157978  -0.691256   0.047540
H  -1.355612   0.879459   0.885680
H  -1.449361   0.763833  -0.847538
H  -0.199596  -1.329322   1.002451
H   0.832681  -0.031887   0.054146
H  -0.098210  -1.301986  -0.784047
