butane_opt
 OpenBabel08242015413D

 14 13  0  0  0  0  0  0  0  0999 V2000
   -3.9384    0.2499    0.0361 C   0  0  0  0  0  0  0  0  0  0  0  0
   -2.6977   -0.5998    0.0296 C   0  0  0  0  0  0  0  0  0  0  0  0
   -4.8787   -0.3526   -0.1341 H   0  0  0  0  0  0  0  0  0  0  0  0
   -3.9056    0.7465   -0.8151 H   0  0  0  0  0  0  0  0  0  0  0  0
   -3.9551    0.9914    0.9064 H   0  0  0  0  0  0  0  0  0  0  0  0
   -1.4123    0.1966   -0.0057 C   0  0  0  0  0  0  0  0  0  0  0  0
   -2.7844   -1.2452   -0.7846 H   0  0  0  0  0  0  0  0  0  0  0  0
   -2.6202   -1.2477    0.9348 H   0  0  0  0  0  0  0  0  0  0  0  0
   -0.1541   -0.6921    0.0364 C   0  0  0  0  0  0  0  0  0  0  0  0
   -1.4508    0.9124    0.8327 H   0  0  0  0  0  0  0  0  0  0  0  0
   -1.3989    0.7782   -0.8559 H   0  0  0  0  0  0  0  0  0  0  0  0
   -0.1187   -1.4432    1.0018 H   0  0  0  0  0  0  0  0  0  0  0  0
    0.6450   -0.1733   -0.0463 H   0  0  0  0  0  0  0  0  0  0  0  0
   -0.1183   -1.3100   -0.7554 H   0  0  0  0  0  0  0  0  0  0  0  0
  1  5  1  0  0  0  0
  2  1  1  0  0  0  0
  2  8  1  0  0  0  0
  3  1  1  0  0  0  0
  4  1  1  0  0  0  0
  6  2  1  0  0  0  0
  6  9  1  0  0  0  0
  6 10  1  0  0  0  0
  7  2  1  0  0  0  0
  9 12  1  0  0  0  0
 11  6  1  0  0  0  0
 13  9  1  0  0  0  0
 14  9  1  0  0  0  0
M  END
$$$$
