14
butane_opt
C  -3.926283   0.249827   0.034031
C  -2.687209  -0.589583  -0.004793
H  -4.844674  -0.372918   0.055804
H  -3.994402   0.768556  -0.804228
H  -3.850366   0.946979   0.980034
C  -1.413695   0.193047   0.018921
H  -2.749427  -1.313040  -0.944855
H  -2.715456  -1.148644   0.837208
C  -0.190467  -0.712426   0.060395
H  -1.388642   0.859031   0.845204
H  -1.358124   0.913185  -0.953759
H  -0.062313  -1.510142   1.049991
H   0.708754  -0.135274  -0.235510
H  -0.150520  -1.172256  -0.670886
