butane_opt
 OpenBabel08242015413D

 14 13  0  0  0  0  0  0  0  0999 V2000
   -3.9220    0.2448   -0.0385 C   0  0  0  0  0  0  0  0  0  0  0  0
   -2.7054   -0.6034    0.1056 C   0  0  0  0  0  0  0  0  0  0  0  0
   -4.8728   -0.3678   -0.1207 H   0  0  0  0  0  0  0  0  0  0  0  0
   -3.9019    0.8125   -0.8895 H   0  0  0  0  0  0  0  0  0  0  0  0
   -3.9968    1.0507    0.8490 H   0  0  0  0  0  0  0  0  0  0  0  0
   -1.4243    0.2040    0.0581 C   0  0  0  0  0  0  0  0  0  0  0  0
   -2.6373   -1.1393   -0.6702 H   0  0  0  0  0  0  0  0  0  0  0  0
   -2.7406   -1.3722    1.0675 H   0  0  0  0  0  0  0  0  0  0  0  0
   -0.1581   -0.6950   -0.0215 C   0  0  0  0  0  0  0  0  0  0  0  0
   -1.3351    0.8141    0.8927 H   0  0  0  0  0  0  0  0  0  0  0  0
   -1.4705    0.7875   -0.8302 H   0  0  0  0  0  0  0  0  0  0  0  0
   -0.1442   -1.2249    0.8169 H   0  0  0  0  0  0  0  0  0  0  0  0
    0.6865   -0.1551    0.0404 H   0  0  0  0  0  0  0  0  0  0  0  0
   -0.0831   -1.4972   -0.9624 H   0  0  0  0  0  0  0  0  0  0  0  0
  1  2  1  0  0  0  0
  1  5  1  0  0  0  0
  2  8  1  0  0  0  0
  3  1  1  0  0  0  0
  4  1  1  0  0  0  0
  6  2  1  0  0  0  0
  6 10  1  0  0  0  0
  7  2  1  0  0  0  0
  9 13  1  0  0  0  0
  9  6  1  0  0  0  0
  9 12  1  0  0  0  0
 11  6  1  0  0  0  0
 14  9  1  0  0  0  0
M  END
$$$$
