butane_opt
 OpenBabel08242015413D

 14 13  0  0  0  0  0  0  0  0999 V2000
   -3.9304    0.2652   -0.0184 C   0  0  0  0  0  0  0  0  0  0  0  0
   -2.6766   -0.6127    0.1145 C   0  0  0  0  0  0  0  0  0  0  0  0
   -4.8361   -0.3353   -0.2884 H   0  0  0  0  0  0  0  0  0  0  0  0
   -3.8371    0.8424   -0.8515 H   0  0  0  0  0  0  0  0  0  0  0  0
   -4.1593    0.9651    0.8339 H   0  0  0  0  0  0  0  0  0  0  0  0
   -1.4027    0.1768    0.0462 C   0  0  0  0  0  0  0  0  0  0  0  0
   -2.6624   -1.3085   -0.7755 H   0  0  0  0  0  0  0  0  0  0  0  0
   -2.6899   -1.3254    1.0456 H   0  0  0  0  0  0  0  0  0  0  0  0
   -0.1934   -0.6782   -0.0152 C   0  0  0  0  0  0  0  0  0  0  0  0
   -1.2980    0.8304    0.9147 H   0  0  0  0  0  0  0  0  0  0  0  0
   -1.5102    0.8398   -0.8726 H   0  0  0  0  0  0  0  0  0  0  0  0
   -0.1209   -1.2507    0.8335 H   0  0  0  0  0  0  0  0  0  0  0  0
    0.7044   -0.1342   -0.0176 H   0  0  0  0  0  0  0  0  0  0  0  0
   -0.1723   -1.4109   -0.9070 H   0  0  0  0  0  0  0  0  0  0  0  0
  1  2  1  0  0  0  0
  1  5  1  0  0  0  0
  2  8  1  0  0  0  0
  3  1  1  0  0  0  0
  4  1  1  0  0  0  0
  6  2  1  0  0  0  0
  6 10  1  0  0  0  0
  7  2  1  0  0  0  0
  9  6  1  0  0  0  0
  9 12  1  0  0  0  0
 11  6  1  0  0  0  0
 13  9  1  0  0  0  0
 14  9  1  0  0  0  0
M  END
$$$$
