butane_opt
 OpenBabel08242015413D

 14 13  0  0  0  0  0  0  0  0999 V2000
   -3.9528    0.2937   -0.0285 C   0  0  0  0  0  0  0  0  0  0  0  0
   -2.7133   -0.6670    0.1236 C   0  0  0  0  0  0  0  0  0  0  0  0
   -4.8128   -0.2257   -0.2607 H   0  0  0  0  0  0  0  0  0  0  0  0
   -3.8664    0.8034   -0.9168 H   0  0  0  0  0  0  0  0  0  0  0  0
   -4.1766    1.0060    0.8370 H   0  0  0  0  0  0  0  0  0  0  0  0
   -1.3847    0.1746    0.0516 C   0  0  0  0  0  0  0  0  0  0  0  0
   -2.6987   -1.2608   -0.6877 H   0  0  0  0  0  0  0  0  0  0  0  0
   -2.7296   -1.3109    0.9958 H   0  0  0  0  0  0  0  0  0  0  0  0
   -0.1484   -0.6773   -0.0109 C   0  0  0  0  0  0  0  0  0  0  0  0
   -1.3430    0.8641    0.9038 H   0  0  0  0  0  0  0  0  0  0  0  0
   -1.4538    0.8494   -0.8378 H   0  0  0  0  0  0  0  0  0  0  0  0
   -0.0863   -1.1867    0.8089 H   0  0  0  0  0  0  0  0  0  0  0  0
    0.7470   -0.0812   -0.0897 H   0  0  0  0  0  0  0  0  0  0  0  0
   -0.2256   -1.4208   -0.9476 H   0  0  0  0  0  0  0  0  0  0  0  0
  1  2  1  0  0  0  0
  1  5  1  0  0  0  0
  2  8  1  0  0  0  0
  3  1  1  0  0  0  0
  4  1  1  0  0  0  0
  6  2  1  0  0  0  0
  6 10  1  0  0  0  0
  7  2  1  0  0  0  0
  9  6  1  0  0  0  0
  9 12  1  0  0  0  0
 11  6  1  0  0  0  0
 13  9  1  0  0  0  0
 14  9  1  0  0  0  0
M  END
$$$$
