14
butane_opt
C  -3.959028   0.281133   0.074676
C  -2.687302  -0.649169  -0.027146
H  -4.830924  -0.253909   0.106157
H  -4.100473   0.810634  -0.775454
H  -3.898379   1.000105   1.000250
C  -1.398784   0.180313  -0.066681
H  -2.737652  -1.283506  -0.859158
H  -2.563746  -1.318808   0.890194
C  -0.165725  -0.674510   0.100194
H  -1.453800   0.837287   0.764570
H  -1.297251   0.820754  -1.026102
H  -0.284437  -1.235650   1.018420
H   0.744020  -0.056672   0.141526
H  -0.078235  -1.443186  -0.809045
