butane_opt
 OpenBabel08242015413D

 14 13  0  0  0  0  0  0  0  0999 V2000
   -3.9590    0.2811    0.0747 C   0  0  0  0  0  0  0  0  0  0  0  0
   -2.6873   -0.6492   -0.0271 C   0  0  0  0  0  0  0  0  0  0  0  0
   -4.8309   -0.2539    0.1062 H   0  0  0  0  0  0  0  0  0  0  0  0
   -4.1005    0.8106   -0.7755 H   0  0  0  0  0  0  0  0  0  0  0  0
   -3.8984    1.0001    1.0003 H   0  0  0  0  0  0  0  0  0  0  0  0
   -1.3988    0.1803   -0.0667 C   0  0  0  0  0  0  0  0  0  0  0  0
   -2.7377   -1.2835   -0.8592 H   0  0  0  0  0  0  0  0  0  0  0  0
   -2.5637   -1.3188    0.8902 H   0  0  0  0  0  0  0  0  0  0  0  0
   -0.1657   -0.6745    0.1002 C   0  0  0  0  0  0  0  0  0  0  0  0
   -1.4538    0.8373    0.7646 H   0  0  0  0  0  0  0  0  0  0  0  0
   -1.2973    0.8208   -1.0261 H   0  0  0  0  0  0  0  0  0  0  0  0
   -0.2844   -1.2356    1.0184 H   0  0  0  0  0  0  0  0  0  0  0  0
    0.7440   -0.0567    0.1415 H   0  0  0  0  0  0  0  0  0  0  0  0
   -0.0782   -1.4432   -0.8090 H   0  0  0  0  0  0  0  0  0  0  0  0
  1  3  1  0  0  0  0
  1  5  1  0  0  0  0
  2  1  1  0  0  0  0
  2  8  1  0  0  0  0
  4  1  1  0  0  0  0
  6  2  1  0  0  0  0
  6  9  1  0  0  0  0
  6 10  1  0  0  0  0
  7  2  1  0  0  0  0
  9 13  1  0  0  0  0
  9 12  1  0  0  0  0
 11  6  1  0  0  0  0
 14  9  1  0  0  0  0
M  END
$$$$
