butane_opt
 OpenBabel08242015413D

 14 13  0  0  0  0  0  0  0  0999 V2000
   -3.9495    0.2793    0.0334 C   0  0  0  0  0  0  0  0  0  0  0  0
   -2.6876   -0.6264    0.0260 C   0  0  0  0  0  0  0  0  0  0  0  0
   -4.8755   -0.3422    0.1093 H   0  0  0  0  0  0  0  0  0  0  0  0
   -3.9879    0.9115   -0.8668 H   0  0  0  0  0  0  0  0  0  0  0  0
   -3.9261    0.9521    0.8779 H   0  0  0  0  0  0  0  0  0  0  0  0
   -1.3952    0.1758   -0.0207 C   0  0  0  0  0  0  0  0  0  0  0  0
   -2.7322   -1.3074   -0.8240 H   0  0  0  0  0  0  0  0  0  0  0  0
   -2.6867   -1.2609    0.9083 H   0  0  0  0  0  0  0  0  0  0  0  0
   -0.1787   -0.6871    0.0499 C   0  0  0  0  0  0  0  0  0  0  0  0
   -1.3330    0.8490    0.8171 H   0  0  0  0  0  0  0  0  0  0  0  0
   -1.4029    0.7554   -0.8765 H   0  0  0  0  0  0  0  0  0  0  0  0
   -0.2345   -1.2587    0.9212 H   0  0  0  0  0  0  0  0  0  0  0  0
    0.7829   -0.0655    0.1293 H   0  0  0  0  0  0  0  0  0  0  0  0
   -0.0988   -1.3969   -0.8196 H   0  0  0  0  0  0  0  0  0  0  0  0
  1  3  1  0  0  0  0
  1  5  1  0  0  0  0
  2  1  1  0  0  0  0
  2  8  1  0  0  0  0
  4  1  1  0  0  0  0
  6  2  1  0  0  0  0
  6  9  1  0  0  0  0
  6 10  1  0  0  0  0
  7  2  1  0  0  0  0
  9 13  1  0  0  0  0
  9 12  1  0  0  0  0
 11  6  1  0  0  0  0
 14  9  1  0  0  0  0
M  END
$$$$
