butane_opt
 OpenBabel08242015413D

 14 13  0  0  0  0  0  0  0  0999 V2000
   -3.9543    0.2843   -0.0031 C   0  0  0  0  0  0  0  0  0  0  0  0
   -2.6877   -0.6326    0.0764 C   0  0  0  0  0  0  0  0  0  0  0  0
   -4.8644   -0.3290    0.0972 H   0  0  0  0  0  0  0  0  0  0  0  0
   -3.9404    0.9988   -0.9144 H   0  0  0  0  0  0  0  0  0  0  0  0
   -4.0375    0.9062    0.8273 H   0  0  0  0  0  0  0  0  0  0  0  0
   -1.4056    0.1426    0.0020 C   0  0  0  0  0  0  0  0  0  0  0  0
   -2.6756   -1.1800   -0.6646 H   0  0  0  0  0  0  0  0  0  0  0  0
   -2.6552   -1.3343    0.9644 H   0  0  0  0  0  0  0  0  0  0  0  0
   -0.1730   -0.6638    0.0043 C   0  0  0  0  0  0  0  0  0  0  0  0
   -1.3818    0.8733    0.8974 H   0  0  0  0  0  0  0  0  0  0  0  0
   -1.2995    0.7288   -0.8649 H   0  0  0  0  0  0  0  0  0  0  0  0
   -0.2929   -1.0937    0.7817 H   0  0  0  0  0  0  0  0  0  0  0  0
    0.7957   -0.0462    0.3068 H   0  0  0  0  0  0  0  0  0  0  0  0
   -0.0376   -1.5614   -0.9771 H   0  0  0  0  0  0  0  0  0  0  0  0
  1  2  1  0  0  0  0
  1  3  1  0  0  0  0
  1  5  1  0  0  0  0
  2  8  1  0  0  0  0
  4  1  1  0  0  0  0
  6  9  1  0  0  0  0
  6  2  1  0  0  0  0
  6 10  1  0  0  0  0
  7  2  1  0  0  0  0
  9 13  1  0  0  0  0
  9 12  1  0  0  0  0
 11  6  1  0  0  0  0
 14  9  1  0  0  0  0
M  END
$$$$
