14
butane_opt
C  -3.950253   0.271891   0.027289
C  -2.684314  -0.612964   0.048238
H  -4.751625  -0.276291  -0.194675
H  -3.889600   0.733322  -0.736632
H  -4.053327   1.138278   1.020971
C  -1.395162   0.153339  -0.022210
H  -2.682529  -1.324427  -0.817605
H  -2.655086  -1.265467   0.943172
C  -0.184334  -0.677553   0.055353
H  -1.393082   0.699395   0.763252
H  -1.427517   0.822701  -0.954382
H  -0.127028  -1.280672   0.922147
H   0.799854  -0.007515   0.026607
H  -0.287923  -1.303909  -0.808345
