butane_opt
 OpenBabel08242015413D

 14 13  0  0  0  0  0  0  0  0999 V2000
   -3.9408    0.2668   -0.0084 C   0  0  0  0  0  0  0  0  0  0  0  0
   -2.7094   -0.6258    0.0677 C   0  0  0  0  0  0  0  0  0  0  0  0
   -4.8627   -0.3327   -0.0569 H   0  0  0  0  0  0  0  0  0  0  0  0
   -3.9578    0.8799   -0.9184 H   0  0  0  0  0  0  0  0  0  0  0  0
   -4.0346    0.9356    0.8217 H   0  0  0  0  0  0  0  0  0  0  0  0
   -1.4013    0.1986    0.0504 C   0  0  0  0  0  0  0  0  0  0  0  0
   -2.7186   -1.3065   -0.7911 H   0  0  0  0  0  0  0  0  0  0  0  0
   -2.7562   -1.2811    0.9821 H   0  0  0  0  0  0  0  0  0  0  0  0
   -0.1470   -0.6987    0.0101 C   0  0  0  0  0  0  0  0  0  0  0  0
   -1.3938    0.8806    0.8892 H   0  0  0  0  0  0  0  0  0  0  0  0
   -1.4407    0.8380   -0.8313 H   0  0  0  0  0  0  0  0  0  0  0  0
   -0.0069   -1.3076    0.8964 H   0  0  0  0  0  0  0  0  0  0  0  0
    0.7526   -0.1169   -0.1164 H   0  0  0  0  0  0  0  0  0  0  0  0
   -0.2200   -1.3535   -0.8727 H   0  0  0  0  0  0  0  0  0  0  0  0
  1  2  1  0  0  0  0
  1  5  1  0  0  0  0
  2  8  1  0  0  0  0
  3  1  1  0  0  0  0
  4  1  1  0  0  0  0
  6  2  1  0  0  0  0
  6 10  1  0  0  0  0
  7  2  1  0  0  0  0
  9  6  1  0  0  0  0
  9 12  1  0  0  0  0
 11  6  1  0  0  0  0
 13  9  1  0  0  0  0
 14  9  1  0  0  0  0
M  END
$$$$
