butane_opt
 OpenBabel08242015413D

 14 13  0  0  0  0  0  0  0  0999 V2000
   -3.9210    0.2350    0.0794 C   0  0  0  0  0  0  0  0  0  0  0  0
   -2.7007   -0.5667   -0.0237 C   0  0  0  0  0  0  0  0  0  0  0  0
   -4.9190   -0.4607    0.1698 H   0  0  0  0  0  0  0  0  0  0  0  0
   -3.9536    0.9018   -0.8552 H   0  0  0  0  0  0  0  0  0  0  0  0
   -3.9427    0.9184    0.9497 H   0  0  0  0  0  0  0  0  0  0  0  0
   -1.4164    0.1909   -0.0623 C   0  0  0  0  0  0  0  0  0  0  0  0
   -2.7325   -1.2714   -0.8675 H   0  0  0  0  0  0  0  0  0  0  0  0
   -2.6317   -1.2138    0.9130 H   0  0  0  0  0  0  0  0  0  0  0  0
   -0.1650   -0.7110    0.0841 C   0  0  0  0  0  0  0  0  0  0  0  0
   -1.4491    0.9012    0.7805 H   0  0  0  0  0  0  0  0  0  0  0  0
   -1.3782    0.8422   -0.9554 H   0  0  0  0  0  0  0  0  0  0  0  0
   -0.2797   -1.3092    0.9355 H   0  0  0  0  0  0  0  0  0  0  0  0
    0.7372   -0.1426    0.2338 H   0  0  0  0  0  0  0  0  0  0  0  0
   -0.0048   -1.4356   -0.7979 H   0  0  0  0  0  0  0  0  0  0  0  0
  1  3  1  0  0  0  0
  1  5  1  0  0  0  0
  2  1  1  0  0  0  0
  2  8  1  0  0  0  0
  4  1  1  0  0  0  0
  6  2  1  0  0  0  0
  6  9  1  0  0  0  0
  6 10  1  0  0  0  0
  7  2  1  0  0  0  0
  9 13  1  0  0  0  0
  9 12  1  0  0  0  0
 11  6  1  0  0  0  0
 14  9  1  0  0  0  0
M  END
$$$$
