butane_opt
 OpenBabel08242015413D

 14 13  0  0  0  0  0  0  0  0999 V2000
   -3.9246    0.2376   -0.0557 C   0  0  0  0  0  0  0  0  0  0  0  0
   -2.6964   -0.5904    0.1436 C   0  0  0  0  0  0  0  0  0  0  0  0
   -4.8202   -0.3811   -0.2619 H   0  0  0  0  0  0  0  0  0  0  0  0
   -3.8188    0.7518   -0.8946 H   0  0  0  0  0  0  0  0  0  0  0  0
   -3.9854    1.0098    0.8833 H   0  0  0  0  0  0  0  0  0  0  0  0
   -1.4311    0.2100    0.0744 C   0  0  0  0  0  0  0  0  0  0  0  0
   -2.6517   -1.1993   -0.6913 H   0  0  0  0  0  0  0  0  0  0  0  0
   -2.7736   -1.2375    1.0340 H   0  0  0  0  0  0  0  0  0  0  0  0
   -0.1602   -0.7242   -0.0316 C   0  0  0  0  0  0  0  0  0  0  0  0
   -1.3861    0.8337    0.8812 H   0  0  0  0  0  0  0  0  0  0  0  0
   -1.5051    0.8862   -0.8554 H   0  0  0  0  0  0  0  0  0  0  0  0
   -0.0666   -1.2354    0.7317 H   0  0  0  0  0  0  0  0  0  0  0  0
    0.7520   -0.1014   -0.0370 H   0  0  0  0  0  0  0  0  0  0  0  0
   -0.2086   -1.3996   -0.9137 H   0  0  0  0  0  0  0  0  0  0  0  0
  1  2  1  0  0  0  0
  1  5  1  0  0  0  0
  2  8  1  0  0  0  0
  3  1  1  0  0  0  0
  4  1  1  0  0  0  0
  6  2  1  0  0  0  0
  6 10  1  0  0  0  0
  7  2  1  0  0  0  0
  9  6  1  0  0  0  0
  9 12  1  0  0  0  0
 11  6  1  0  0  0  0
 13  9  1  0  0  0  0
 14  9  1  0  0  0  0
M  END
$$$$
