butane_opt
 OpenBabel08242015413D

 14 13  0  0  0  0  0  0  0  0999 V2000
   -3.9296    0.2430    0.0261 C   0  0  0  0  0  0  0  0  0  0  0  0
   -2.6869   -0.5906    0.0442 C   0  0  0  0  0  0  0  0  0  0  0  0
   -4.7753   -0.3170   -0.1458 H   0  0  0  0  0  0  0  0  0  0  0  0
   -3.9357    0.6586   -0.7409 H   0  0  0  0  0  0  0  0  0  0  0  0
   -3.9224    0.9994    1.0122 H   0  0  0  0  0  0  0  0  0  0  0  0
   -1.4309    0.2103   -0.0269 C   0  0  0  0  0  0  0  0  0  0  0  0
   -2.6602   -1.2224   -0.7654 H   0  0  0  0  0  0  0  0  0  0  0  0
   -2.7765   -1.2550    0.9527 H   0  0  0  0  0  0  0  0  0  0  0  0
   -0.1692   -0.7096    0.0456 C   0  0  0  0  0  0  0  0  0  0  0  0
   -1.4193    0.8496    0.8224 H   0  0  0  0  0  0  0  0  0  0  0  0
   -1.3968    0.8159   -0.9408 H   0  0  0  0  0  0  0  0  0  0  0  0
   -0.1589   -1.3372    0.9493 H   0  0  0  0  0  0  0  0  0  0  0  0
    0.7328   -0.1200    0.0483 H   0  0  0  0  0  0  0  0  0  0  0  0
   -0.1144   -1.3765   -0.8054 H   0  0  0  0  0  0  0  0  0  0  0  0
  1  2  1  0  0  0  0
  1  5  1  0  0  0  0
  2  8  1  0  0  0  0
  3  1  1  0  0  0  0
  4  1  1  0  0  0  0
  6  2  1  0  0  0  0
  6  9  1  0  0  0  0
  6 10  1  0  0  0  0
  7  2  1  0  0  0  0
  9 13  1  0  0  0  0
  9 12  1  0  0  0  0
 11  6  1  0  0  0  0
 14  9  1  0  0  0  0
M  END
$$$$
