14
butane_opt
C  -3.974509   0.266508   0.009885
C  -2.682665  -0.633432   0.065178
H  -4.872242  -0.279860  -0.138201
H  -3.814830   0.811261  -0.878028
H  -4.151849   1.064705   0.896881
C  -1.398939   0.185709   0.014140
H  -2.756124  -1.224774  -0.736625
H  -2.723866  -1.342995   1.004397
C  -0.151018  -0.672386   0.013552
H  -1.306995   0.870986   0.820247
H  -1.426432   0.711392  -0.801608
H  -0.079980  -1.332015   0.916700
H   0.690090  -0.114567  -0.007528
H  -0.102212  -1.394407  -0.850748
