14
butane_opt
C  -3.944804   0.287695  -0.019352
C  -2.701867  -0.652254   0.096314
H  -4.851076  -0.287891   0.084339
H  -3.997212   1.036792  -1.028565
H  -4.071589   0.810518   0.754829
C  -1.404225   0.184716   0.049207
H  -2.650949  -1.281528  -0.744650
H  -2.784840  -1.327460   1.050625
C  -0.161571  -0.679769  -0.003449
H  -1.312833   0.830883   0.900318
H  -1.316472   0.848185  -0.886801
H  -0.218697  -1.070494   0.690413
H   0.795420  -0.066834   0.185091
H  -0.068803  -1.646170  -1.078565
