14
butane_opt
C  -3.937688   0.270946  -0.011657
C  -2.694375  -0.617085   0.062036
H  -4.813526  -0.328314   0.117695
H  -3.937286   1.029179  -1.034548
H  -3.883892   0.796652   0.764256
C  -1.415943   0.177472   0.074643
H  -2.669053  -1.391444  -0.822035
H  -2.713565  -1.187252   0.923138
C  -0.184868  -0.679940  -0.012352
H  -1.310421   0.876184   0.971041
H  -1.357487   0.792129  -0.834685
H  -0.141803  -1.410378   0.942707
H   0.722508  -0.080830  -0.093636
H  -0.141633  -1.366582  -0.861779
