butane_opt
 OpenBabel08242015413D

 14 13  0  0  0  0  0  0  0  0999 V2000
   -3.9081    0.2559    0.0320 C   0  0  0  0  0  0  0  0  0  0  0  0
   -2.7023   -0.5960    0.0208 C   0  0  0  0  0  0  0  0  0  0  0  0
   -4.8746   -0.3638   -0.0857 H   0  0  0  0  0  0  0  0  0  0  0  0
   -3.8755    0.6316   -0.6743 H   0  0  0  0  0  0  0  0  0  0  0  0
   -3.9944    1.1428    1.0451 H   0  0  0  0  0  0  0  0  0  0  0  0
   -1.4223    0.2014   -0.0323 C   0  0  0  0  0  0  0  0  0  0  0  0
   -2.8350   -1.3349   -0.8555 H   0  0  0  0  0  0  0  0  0  0  0  0
   -2.7394   -1.2479    0.9671 H   0  0  0  0  0  0  0  0  0  0  0  0
   -0.1576   -0.7076    0.0559 C   0  0  0  0  0  0  0  0  0  0  0  0
   -1.4153    0.8436    0.8219 H   0  0  0  0  0  0  0  0  0  0  0  0
   -1.4310    0.8381   -0.9655 H   0  0  0  0  0  0  0  0  0  0  0  0
   -0.1744   -1.4539    1.0163 H   0  0  0  0  0  0  0  0  0  0  0  0
    0.7245   -0.1348   -0.0311 H   0  0  0  0  0  0  0  0  0  0  0  0
   -0.1181   -1.2383   -0.6778 H   0  0  0  0  0  0  0  0  0  0  0  0
  1  5  1  0  0  0  0
  2  1  1  0  0  0  0
  2  8  1  0  0  0  0
  3  1  1  0  0  0  0
  4  1  1  0  0  0  0
  6  2  1  0  0  0  0
  6  9  1  0  0  0  0
  6 10  1  0  0  0  0
  7  2  1  0  0  0  0
  9 12  1  0  0  0  0
 11  6  1  0  0  0  0
 13  9  1  0  0  0  0
 14  9  1  0  0  0  0
M  END
$$$$
