14
butane_opt
C  -3.977469   0.267390  -0.038310
C  -2.691155  -0.629961   0.118876
H  -4.830101  -0.274513  -0.203640
H  -3.866441   0.884384  -0.951048
H  -4.165459   1.011549   0.854579
C  -1.384986   0.160448   0.076065
H  -2.636711  -1.272749  -0.692566
H  -2.789470  -1.269674   1.039755
C  -0.151159  -0.677743  -0.035021
H  -1.342955   0.907308   0.970693
H  -1.479614   0.825085  -0.864262
H  -0.135473  -1.265494   0.881319
H   0.831050  -0.071520  -0.128240
H  -0.161967  -1.381997  -0.926241
