14
butane_opt
C  -3.929412   0.251978   0.068781
C  -2.695502  -0.588090  -0.016811
H  -4.902325  -0.403738   0.182155
H  -3.964621   0.790929  -0.770252
H  -3.864745   0.913586   0.936760
C  -1.430565   0.185873  -0.059230
H  -2.751624  -1.295953  -0.852755
H  -2.702831  -1.129839   0.822657
C  -0.149292  -0.707097   0.096191
H  -1.491697   0.811728   0.736979
H  -1.338433   0.900299  -1.015071
H  -0.157162  -1.225694   0.988404
H   0.714025  -0.147931   0.157467
H  -0.100243  -1.418859  -0.811796
