butane_opt
 OpenBabel08242015413D

 14 13  0  0  0  0  0  0  0  0999 V2000
   -3.9775    0.2674   -0.0383 C   0  0  0  0  0  0  0  0  0  0  0  0
   -2.6912   -0.6300    0.1189 C   0  0  0  0  0  0  0  0  0  0  0  0
   -4.8301   -0.2745   -0.2036 H   0  0  0  0  0  0  0  0  0  0  0  0
   -3.8664    0.8844   -0.9510 H   0  0  0  0  0  0  0  0  0  0  0  0
   -4.1655    1.0115    0.8546 H   0  0  0  0  0  0  0  0  0  0  0  0
   -1.3850    0.1604    0.0761 C   0  0  0  0  0  0  0  0  0  0  0  0
   -2.6367   -1.2727   -0.6926 H   0  0  0  0  0  0  0  0  0  0  0  0
   -2.7895   -1.2697    1.0398 H   0  0  0  0  0  0  0  0  0  0  0  0
   -0.1512   -0.6777   -0.0350 C   0  0  0  0  0  0  0  0  0  0  0  0
   -1.3430    0.9073    0.9707 H   0  0  0  0  0  0  0  0  0  0  0  0
   -1.4796    0.8251   -0.8643 H   0  0  0  0  0  0  0  0  0  0  0  0
   -0.1355   -1.2655    0.8813 H   0  0  0  0  0  0  0  0  0  0  0  0
    0.8310   -0.0715   -0.1282 H   0  0  0  0  0  0  0  0  0  0  0  0
   -0.1620   -1.3820   -0.9262 H   0  0  0  0  0  0  0  0  0  0  0  0
  1  2  1  0  0  0  0
  1  5  1  0  0  0  0
  2  8  1  0  0  0  0
  3  1  1  0  0  0  0
  4  1  1  0  0  0  0
  6  2  1  0  0  0  0
  6 10  1  0  0  0  0
  7  2  1  0  0  0  0
  9  6  1  0  0  0  0
  9 12  1  0  0  0  0
 11  6  1  0  0  0  0
 13  9  1  0  0  0  0
 14  9  1  0  0  0  0
M  END
$$$$
