butane_opt
 OpenBabel08242015413D

 14 13  0  0  0  0  0  0  0  0999 V2000
   -3.9396    0.2794    0.0750 C   0  0  0  0  0  0  0  0  0  0  0  0
   -2.6943   -0.6331    0.0093 C   0  0  0  0  0  0  0  0  0  0  0  0
   -4.8605   -0.3350   -0.2040 H   0  0  0  0  0  0  0  0  0  0  0  0
   -3.8886    0.6811   -0.6874 H   0  0  0  0  0  0  0  0  0  0  0  0
   -4.1059    1.1140    0.9818 H   0  0  0  0  0  0  0  0  0  0  0  0
   -1.4012    0.1738   -0.0460 C   0  0  0  0  0  0  0  0  0  0  0  0
   -2.6823   -1.3477   -0.8637 H   0  0  0  0  0  0  0  0  0  0  0  0
   -2.6071   -1.2119    0.8472 H   0  0  0  0  0  0  0  0  0  0  0  0
   -0.1761   -0.6867    0.0774 C   0  0  0  0  0  0  0  0  0  0  0  0
   -1.4069    0.8391    0.7406 H   0  0  0  0  0  0  0  0  0  0  0  0
   -1.3409    0.8784   -0.9953 H   0  0  0  0  0  0  0  0  0  0  0  0
   -0.2015   -1.3924    1.0515 H   0  0  0  0  0  0  0  0  0  0  0  0
    0.7445   -0.0761   -0.0837 H   0  0  0  0  0  0  0  0  0  0  0  0
   -0.1345   -1.2371   -0.7102 H   0  0  0  0  0  0  0  0  0  0  0  0
  1  5  1  0  0  0  0
  2  1  1  0  0  0  0
  2  8  1  0  0  0  0
  3  1  1  0  0  0  0
  4  1  1  0  0  0  0
  6  2  1  0  0  0  0
  6  9  1  0  0  0  0
  6 10  1  0  0  0  0
  7  2  1  0  0  0  0
  9 12  1  0  0  0  0
 11  6  1  0  0  0  0
 13  9  1  0  0  0  0
 14  9  1  0  0  0  0
M  END
$$$$
