14
butane_opt
C  -3.955243   0.262226  -0.050920
C  -2.713752  -0.607747   0.099188
H  -4.876720  -0.379129   0.027437
H  -4.007366   0.884517  -0.992426
H  -4.009438   0.872794   0.752264
C  -1.390326   0.218176   0.095955
H  -2.653358  -1.354238  -0.812620
H  -2.773814  -1.269575   1.019646
C  -0.150719  -0.712265  -0.031778
H  -1.306525   0.903693   0.992232
H  -1.373243   0.804597  -0.736426
H   0.060592  -1.390961   0.900380
H   0.725044  -0.183328  -0.185774
H  -0.267267  -1.284937  -0.865319
