butane_opt
 OpenBabel08242015413D

 14 13  0  0  0  0  0  0  0  0999 V2000
   -3.9350    0.2557   -0.0273 C   0  0  0  0  0  0  0  0  0  0  0  0
   -2.7189   -0.6051    0.0704 C   0  0  0  0  0  0  0  0  0  0  0  0
   -4.8502   -0.3560    0.1004 H   0  0  0  0  0  0  0  0  0  0  0  0
   -3.9579    0.9695   -0.9895 H   0  0  0  0  0  0  0  0  0  0  0  0
   -3.9880    0.8071    0.7098 H   0  0  0  0  0  0  0  0  0  0  0  0
   -1.4095    0.2056    0.0788 C   0  0  0  0  0  0  0  0  0  0  0  0
   -2.7596   -1.2996   -0.8143 H   0  0  0  0  0  0  0  0  0  0  0  0
   -2.8186   -1.2624    1.0340 H   0  0  0  0  0  0  0  0  0  0  0  0
   -0.1344   -0.7105   -0.0280 C   0  0  0  0  0  0  0  0  0  0  0  0
   -1.3660    0.9815    1.0275 H   0  0  0  0  0  0  0  0  0  0  0  0
   -1.4545    0.7515   -0.7262 H   0  0  0  0  0  0  0  0  0  0  0  0
   -0.0678   -1.3742    0.9246 H   0  0  0  0  0  0  0  0  0  0  0  0
    0.7073   -0.1395   -0.1439 H   0  0  0  0  0  0  0  0  0  0  0  0
   -0.0898   -1.3020   -0.8209 H   0  0  0  0  0  0  0  0  0  0  0  0
  1  2  1  0  0  0  0
  1  3  1  0  0  0  0
  1  5  1  0  0  0  0
  2  6  1  0  0  0  0
  2  8  1  0  0  0  0
  4  1  1  0  0  0  0
  6 10  1  0  0  0  0
  7  2  1  0  0  0  0
  9  6  1  0  0  0  0
  9 12  1  0  0  0  0
 11  6  1  0  0  0  0
 13  9  1  0  0  0  0
 14  9  1  0  0  0  0
M  END
$$$$
