butane_opt
 OpenBabel08242015413D

 14 13  0  0  0  0  0  0  0  0999 V2000
   -3.9294    0.2520    0.0688 C   0  0  0  0  0  0  0  0  0  0  0  0
   -2.6955   -0.5881   -0.0168 C   0  0  0  0  0  0  0  0  0  0  0  0
   -4.9023   -0.4037    0.1822 H   0  0  0  0  0  0  0  0  0  0  0  0
   -3.9646    0.7909   -0.7703 H   0  0  0  0  0  0  0  0  0  0  0  0
   -3.8647    0.9136    0.9368 H   0  0  0  0  0  0  0  0  0  0  0  0
   -1.4306    0.1859   -0.0592 C   0  0  0  0  0  0  0  0  0  0  0  0
   -2.7516   -1.2960   -0.8528 H   0  0  0  0  0  0  0  0  0  0  0  0
   -2.7028   -1.1298    0.8227 H   0  0  0  0  0  0  0  0  0  0  0  0
   -0.1493   -0.7071    0.0962 C   0  0  0  0  0  0  0  0  0  0  0  0
   -1.4917    0.8117    0.7370 H   0  0  0  0  0  0  0  0  0  0  0  0
   -1.3384    0.9003   -1.0151 H   0  0  0  0  0  0  0  0  0  0  0  0
   -0.1572   -1.2257    0.9884 H   0  0  0  0  0  0  0  0  0  0  0  0
    0.7140   -0.1479    0.1575 H   0  0  0  0  0  0  0  0  0  0  0  0
   -0.1002   -1.4189   -0.8118 H   0  0  0  0  0  0  0  0  0  0  0  0
  1  3  1  0  0  0  0
  1  5  1  0  0  0  0
  2  1  1  0  0  0  0
  2  8  1  0  0  0  0
  4  1  1  0  0  0  0
  6  2  1  0  0  0  0
  6  9  1  0  0  0  0
  6 10  1  0  0  0  0
  7  2  1  0  0  0  0
  9 13  1  0  0  0  0
  9 12  1  0  0  0  0
 11  6  1  0  0  0  0
 14  9  1  0  0  0  0
M  END
$$$$
