butane_opt
 OpenBabel08242015413D

 14 13  0  0  0  0  0  0  0  0999 V2000
   -3.9465    0.2806    0.0563 C   0  0  0  0  0  0  0  0  0  0  0  0
   -2.6957   -0.6206   -0.0139 C   0  0  0  0  0  0  0  0  0  0  0  0
   -4.8973   -0.3477    0.0205 H   0  0  0  0  0  0  0  0  0  0  0  0
   -3.9805    0.8478   -0.8103 H   0  0  0  0  0  0  0  0  0  0  0  0
   -3.9506    1.0997    0.9931 H   0  0  0  0  0  0  0  0  0  0  0  0
   -1.3833    0.1423   -0.0180 C   0  0  0  0  0  0  0  0  0  0  0  0
   -2.6673   -1.3972   -0.9269 H   0  0  0  0  0  0  0  0  0  0  0  0
   -2.7026   -1.1747    0.8136 H   0  0  0  0  0  0  0  0  0  0  0  0
   -0.1740   -0.6664    0.0629 C   0  0  0  0  0  0  0  0  0  0  0  0
   -1.3639    0.8698    0.8956 H   0  0  0  0  0  0  0  0  0  0  0  0
   -1.3934    0.7561   -0.8678 H   0  0  0  0  0  0  0  0  0  0  0  0
   -0.1898   -1.5674    1.1906 H   0  0  0  0  0  0  0  0  0  0  0  0
    0.7362   -0.1180   -0.2541 H   0  0  0  0  0  0  0  0  0  0  0  0
   -0.2185   -1.0674   -0.6232 H   0  0  0  0  0  0  0  0  0  0  0  0
  1  5  1  0  0  0  0
  2  1  1  0  0  0  0
  2  8  1  0  0  0  0
  3  1  1  0  0  0  0
  4  1  1  0  0  0  0
  6  2  1  0  0  0  0
  6  9  1  0  0  0  0
  6 10  1  0  0  0  0
  7  2  1  0  0  0  0
  9 12  1  0  0  0  0
 11  6  1  0  0  0  0
 13  9  1  0  0  0  0
 14  9  1  0  0  0  0
M  END
$$$$
