butane_opt
 OpenBabel08242015413D

 14 13  0  0  0  0  0  0  0  0999 V2000
   -3.9129    0.2384   -0.0142 C   0  0  0  0  0  0  0  0  0  0  0  0
   -2.6995   -0.6118    0.0787 C   0  0  0  0  0  0  0  0  0  0  0  0
   -4.8590   -0.3690   -0.1113 H   0  0  0  0  0  0  0  0  0  0  0  0
   -3.8867    0.8625   -0.8676 H   0  0  0  0  0  0  0  0  0  0  0  0
   -4.0223    0.9646    0.8594 H   0  0  0  0  0  0  0  0  0  0  0  0
   -1.4235    0.2179    0.0465 C   0  0  0  0  0  0  0  0  0  0  0  0
   -2.6798   -1.1590   -0.7243 H   0  0  0  0  0  0  0  0  0  0  0  0
   -2.7455   -1.2586    0.9742 H   0  0  0  0  0  0  0  0  0  0  0  0
   -0.1609   -0.7164    0.0002 C   0  0  0  0  0  0  0  0  0  0  0  0
   -1.4350    0.8989    0.8871 H   0  0  0  0  0  0  0  0  0  0  0  0
   -1.4725    0.8774   -0.8544 H   0  0  0  0  0  0  0  0  0  0  0  0
   -0.0567   -1.3182    0.8558 H   0  0  0  0  0  0  0  0  0  0  0  0
    0.7546   -0.1243    0.0008 H   0  0  0  0  0  0  0  0  0  0  0  0
   -0.2413   -1.4055   -0.9064 H   0  0  0  0  0  0  0  0  0  0  0  0
  1  2  1  0  0  0  0
  1  5  1  0  0  0  0
  2  8  1  0  0  0  0
  3  1  1  0  0  0  0
  4  1  1  0  0  0  0
  6  2  1  0  0  0  0
  6 10  1  0  0  0  0
  7  2  1  0  0  0  0
  9 13  1  0  0  0  0
  9  6  1  0  0  0  0
  9 12  1  0  0  0  0
 11  6  1  0  0  0  0
 14  9  1  0  0  0  0
M  END
$$$$
