butane_opt
 OpenBabel08242015413D

 14 13  0  0  0  0  0  0  0  0999 V2000
   -3.9552    0.2622   -0.0509 C   0  0  0  0  0  0  0  0  0  0  0  0
   -2.7138   -0.6077    0.0992 C   0  0  0  0  0  0  0  0  0  0  0  0
   -4.8767   -0.3791    0.0274 H   0  0  0  0  0  0  0  0  0  0  0  0
   -4.0074    0.8845   -0.9924 H   0  0  0  0  0  0  0  0  0  0  0  0
   -4.0094    0.8728    0.7523 H   0  0  0  0  0  0  0  0  0  0  0  0
   -1.3903    0.2182    0.0960 C   0  0  0  0  0  0  0  0  0  0  0  0
   -2.6534   -1.3542   -0.8126 H   0  0  0  0  0  0  0  0  0  0  0  0
   -2.7738   -1.2696    1.0196 H   0  0  0  0  0  0  0  0  0  0  0  0
   -0.1507   -0.7123   -0.0318 C   0  0  0  0  0  0  0  0  0  0  0  0
   -1.3065    0.9037    0.9922 H   0  0  0  0  0  0  0  0  0  0  0  0
   -1.3732    0.8046   -0.7364 H   0  0  0  0  0  0  0  0  0  0  0  0
    0.0606   -1.3910    0.9004 H   0  0  0  0  0  0  0  0  0  0  0  0
    0.7250   -0.1833   -0.1858 H   0  0  0  0  0  0  0  0  0  0  0  0
   -0.2673   -1.2849   -0.8653 H   0  0  0  0  0  0  0  0  0  0  0  0
  1  3  1  0  0  0  0
  1  2  1  0  0  0  0
  1  5  1  0  0  0  0
  2  8  1  0  0  0  0
  4  1  1  0  0  0  0
  6  2  1  0  0  0  0
  6 10  1  0  0  0  0
  7  2  1  0  0  0  0
  9  6  1  0  0  0  0
  9 12  1  0  0  0  0
 11  6  1  0  0  0  0
 13  9  1  0  0  0  0
 14  9  1  0  0  0  0
M  END
$$$$
