14
butane_opt
C  -3.939642   0.279378   0.075038
C  -2.694328  -0.633056   0.009277
H  -4.860464  -0.335008  -0.203954
H  -3.888617   0.681073  -0.687447
H  -4.105902   1.113969   0.981798
C  -1.401164   0.173791  -0.045958
H  -2.682269  -1.347673  -0.863686
H  -2.607072  -1.211920   0.847216
C  -0.176141  -0.686664   0.077362
H  -1.406864   0.839075   0.740623
H  -1.340862   0.878370  -0.995296
H  -0.201486  -1.392444   1.051468
H   0.744479  -0.076097  -0.083688
H  -0.134537  -1.237107  -0.710193
