butane_opt
 OpenBabel08242015413D

 14 13  0  0  0  0  0  0  0  0999 V2000
   -3.9548    0.2529    0.0434 C   0  0  0  0  0  0  0  0  0  0  0  0
   -2.7072   -0.5970   -0.0095 C   0  0  0  0  0  0  0  0  0  0  0  0
   -4.8685   -0.3481    0.2151 H   0  0  0  0  0  0  0  0  0  0  0  0
   -4.0480    0.9360   -0.8925 H   0  0  0  0  0  0  0  0  0  0  0  0
   -3.8314    0.8694    0.8845 H   0  0  0  0  0  0  0  0  0  0  0  0
   -1.3895    0.1915   -0.0115 C   0  0  0  0  0  0  0  0  0  0  0  0
   -2.7848   -1.2983   -0.8667 H   0  0  0  0  0  0  0  0  0  0  0  0
   -2.6724   -1.2182    0.8520 H   0  0  0  0  0  0  0  0  0  0  0  0
   -0.1564   -0.7030    0.0667 C   0  0  0  0  0  0  0  0  0  0  0  0
   -1.4369    0.8685    0.8464 H   0  0  0  0  0  0  0  0  0  0  0  0
   -1.3650    0.8218   -0.8974 H   0  0  0  0  0  0  0  0  0  0  0  0
   -0.1333   -1.3093    0.9551 H   0  0  0  0  0  0  0  0  0  0  0  0
    0.7179   -0.1562    0.0143 H   0  0  0  0  0  0  0  0  0  0  0  0
   -0.1009   -1.3668   -0.7552 H   0  0  0  0  0  0  0  0  0  0  0  0
  1  3  1  0  0  0  0
  1  5  1  0  0  0  0
  2  1  1  0  0  0  0
  2  8  1  0  0  0  0
  4  1  1  0  0  0  0
  6  2  1  0  0  0  0
  6  9  1  0  0  0  0
  6 10  1  0  0  0  0
  7  2  1  0  0  0  0
  9 12  1  0  0  0  0
 11  6  1  0  0  0  0
 13  9  1  0  0  0  0
 14  9  1  0  0  0  0
M  END
$$$$
