butane_opt
 OpenBabel08242015413D

 14 13  0  0  0  0  0  0  0  0999 V2000
   -3.9173    0.2477    0.0569 C   0  0  0  0  0  0  0  0  0  0  0  0
   -2.6966   -0.5944   -0.0116 C   0  0  0  0  0  0  0  0  0  0  0  0
   -4.8983   -0.4183    0.0352 H   0  0  0  0  0  0  0  0  0  0  0  0
   -4.0090    0.8013   -0.8048 H   0  0  0  0  0  0  0  0  0  0  0  0
   -3.8947    0.9486    0.9378 H   0  0  0  0  0  0  0  0  0  0  0  0
   -1.4207    0.2200   -0.0196 C   0  0  0  0  0  0  0  0  0  0  0  0
   -2.7431   -1.3703   -0.9789 H   0  0  0  0  0  0  0  0  0  0  0  0
   -2.5968   -1.2080    0.8757 H   0  0  0  0  0  0  0  0  0  0  0  0
   -0.1747   -0.7202    0.0849 C   0  0  0  0  0  0  0  0  0  0  0  0
   -1.4344    0.8428    0.8033 H   0  0  0  0  0  0  0  0  0  0  0  0
   -1.3691    0.8972   -0.9336 H   0  0  0  0  0  0  0  0  0  0  0  0
   -0.0391   -1.4163    1.0556 H   0  0  0  0  0  0  0  0  0  0  0  0
    0.7158   -0.1383   -0.1294 H   0  0  0  0  0  0  0  0  0  0  0  0
   -0.2185   -1.2611   -0.7405 H   0  0  0  0  0  0  0  0  0  0  0  0
  1  5  1  0  0  0  0
  2  1  1  0  0  0  0
  2  8  1  0  0  0  0
  3  1  1  0  0  0  0
  4  1  1  0  0  0  0
  6  2  1  0  0  0  0
  6  9  1  0  0  0  0
  6 10  1  0  0  0  0
  7  2  1  0  0  0  0
  9 12  1  0  0  0  0
 11  6  1  0  0  0  0
 13  9  1  0  0  0  0
 14  9  1  0  0  0  0
M  END
$$$$
