butane_opt
 OpenBabel08242015413D

 14 13  0  0  0  0  0  0  0  0999 V2000
   -3.9378    0.2876    0.0925 C   0  0  0  0  0  0  0  0  0  0  0  0
   -2.6976   -0.6365   -0.0470 C   0  0  0  0  0  0  0  0  0  0  0  0
   -4.8285   -0.3110    0.2346 H   0  0  0  0  0  0  0  0  0  0  0  0
   -4.0794    0.9959   -0.8511 H   0  0  0  0  0  0  0  0  0  0  0  0
   -3.9305    0.8002    0.8270 H   0  0  0  0  0  0  0  0  0  0  0  0
   -1.4036    0.1650   -0.0392 C   0  0  0  0  0  0  0  0  0  0  0  0
   -2.7531   -1.4266   -0.9886 H   0  0  0  0  0  0  0  0  0  0  0  0
   -2.5630   -1.2107    0.8164 H   0  0  0  0  0  0  0  0  0  0  0  0
   -0.1768   -0.6746    0.0963 C   0  0  0  0  0  0  0  0  0  0  0  0
   -1.3805    0.8358    0.8027 H   0  0  0  0  0  0  0  0  0  0  0  0
   -1.3461    0.8451   -1.0013 H   0  0  0  0  0  0  0  0  0  0  0  0
   -0.2289   -1.2769    1.0506 H   0  0  0  0  0  0  0  0  0  0  0  0
    0.7257   -0.0671    0.0617 H   0  0  0  0  0  0  0  0  0  0  0  0
   -0.0589   -1.3513   -0.7629 H   0  0  0  0  0  0  0  0  0  0  0  0
  1  3  1  0  0  0  0
  1  5  1  0  0  0  0
  2  6  1  0  0  0  0
  2  1  1  0  0  0  0
  2  8  1  0  0  0  0
  4  1  1  0  0  0  0
  6  9  1  0  0  0  0
  6 10  1  0  0  0  0
  7  2  1  0  0  0  0
  9 12  1  0  0  0  0
 11  6  1  0  0  0  0
 13  9  1  0  0  0  0
 14  9  1  0  0  0  0
M  END
$$$$
