14
butane_opt
C  -3.941000   0.271052   0.071071
C  -2.695436  -0.635212  -0.003784
H  -4.776602  -0.264467   0.007561
H  -4.028106   0.737250  -0.694897
H  -3.965476   1.062657   0.997375
C  -1.409627   0.194538  -0.067242
H  -2.788989  -1.330599  -0.914639
H  -2.667816  -1.263908   0.883530
C  -0.169292  -0.702260   0.082314
H  -1.378207   0.819464   0.744711
H  -1.339634   0.906046  -1.013547
H  -0.235725  -1.343960   0.991003
H   0.790077  -0.013850   0.224213
H  -0.056501  -1.315380  -0.750187
