14
butane_opt
C  -3.916645   0.228823   0.017372
C  -2.707297  -0.584478   0.048089
H  -4.829041  -0.300664   0.086536
H  -3.969482   0.884458  -0.921550
H  -3.973224   0.847790   0.833223
C  -1.425975   0.213560  -0.006654
H  -2.725893  -1.229632  -0.743270
H  -2.681676  -1.315271   1.037607
C  -0.149159  -0.710148   0.022225
H  -1.460547   0.945659   0.865631
H  -1.398802   0.822809  -0.857412
H  -0.288601  -1.181950   0.846879
H   0.708736  -0.164015   0.211671
H   0.005307  -1.571277  -0.928075
