butane_opt
 OpenBabel08242015413D

 14 13  0  0  0  0  0  0  0  0999 V2000
   -3.9530    0.2738   -0.0159 C   0  0  0  0  0  0  0  0  0  0  0  0
   -2.7086   -0.6419    0.0905 C   0  0  0  0  0  0  0  0  0  0  0  0
   -4.8379   -0.2630    0.1101 H   0  0  0  0  0  0  0  0  0  0  0  0
   -4.0015    1.0067   -0.9790 H   0  0  0  0  0  0  0  0  0  0  0  0
   -3.9994    0.8896    0.7982 H   0  0  0  0  0  0  0  0  0  0  0  0
   -1.3858    0.1882    0.0293 C   0  0  0  0  0  0  0  0  0  0  0  0
   -2.7579   -1.3487   -0.8200 H   0  0  0  0  0  0  0  0  0  0  0  0
   -2.6811   -1.2284    0.9902 H   0  0  0  0  0  0  0  0  0  0  0  0
   -0.1524   -0.6891    0.0060 C   0  0  0  0  0  0  0  0  0  0  0  0
   -1.3137    0.8483    0.8544 H   0  0  0  0  0  0  0  0  0  0  0  0
   -1.4364    0.8139   -0.8715 H   0  0  0  0  0  0  0  0  0  0  0  0
   -0.2812   -1.1582    0.8286 H   0  0  0  0  0  0  0  0  0  0  0  0
    0.7871   -0.0758    0.1682 H   0  0  0  0  0  0  0  0  0  0  0  0
   -0.1001   -1.5301   -0.9840 H   0  0  0  0  0  0  0  0  0  0  0  0
  1  2  1  0  0  0  0
  1  3  1  0  0  0  0
  1  5  1  0  0  0  0
  2  8  1  0  0  0  0
  4  1  1  0  0  0  0
  6  2  1  0  0  0  0
  6 10  1  0  0  0  0
  7  2  1  0  0  0  0
  9  6  1  0  0  0  0
  9 13  1  0  0  0  0
  9 12  1  0  0  0  0
 11  6  1  0  0  0  0
 14  9  1  0  0  0  0
M  END
$$$$
