14
butane_opt
C  -3.957142   0.279384  -0.017386
C  -2.694362  -0.661108   0.056439
H  -4.814231  -0.240219   0.226245
H  -4.092681   1.134516  -0.995677
H  -3.991358   0.778341   0.720511
C  -1.386967   0.184475   0.053245
H  -2.725636  -1.308472  -0.822188
H  -2.700354  -1.276952   0.964229
C  -0.148391  -0.679228   0.011012
H  -1.373181   0.874313   0.921300
H  -1.425923   0.765398  -0.789940
H  -0.095122  -1.158044   0.810723
H   0.750442  -0.099633   0.059231
H  -0.306298  -1.420120  -0.918697
