14
butane_opt
C  -3.957126   0.244539  -0.008831
C  -2.709587  -0.587018   0.072326
H  -4.883609  -0.393662   0.069455
H  -3.956932   0.910272  -0.916188
H  -3.963737   0.902304   0.843171
C  -1.400222   0.213068   0.017401
H  -2.843444  -1.270703  -0.793583
H  -2.772667  -1.262526   1.016970
C  -0.118982  -0.716105   0.020660
H  -1.437344   0.822601   0.855007
H  -1.402728   0.870898  -0.891889
H  -0.114051  -1.184873   0.816085
H   0.788751  -0.169175   0.177634
H  -0.189785  -1.556432  -0.973874
