14
butane_opt
C  -3.919052   0.251655   0.065449
C  -2.692368  -0.601509  -0.037140
H  -4.811422  -0.316472   0.272456
H  -4.058758   0.913468  -0.842521
H  -3.875305   0.949949   0.930049
C  -1.412521   0.198178  -0.049098
H  -2.859957  -1.333096  -0.904427
H  -2.675820  -1.220607   0.862011
C  -0.180921  -0.706297   0.087159
H  -1.420943   0.844254   0.815506
H  -1.363042   0.742251  -0.896641
H  -0.176083  -1.365835   1.029475
H   0.752828  -0.038455   0.078562
H  -0.080270  -1.333240  -0.700060
