14
butane_opt
C  -3.941599   0.273055  -0.020082
C  -2.667660  -0.631889   0.085578
H  -4.830734  -0.278921   0.132054
H  -3.924121   0.968481  -0.995185
H  -4.004976   0.853244   0.799912
C  -1.408253   0.159634   0.034218
H  -2.654346  -1.231445  -0.720921
H  -2.719660  -1.334789   1.069916
C  -0.191916  -0.673058  -0.000878
H  -1.427804   0.856751   0.922934
H  -1.330243   0.838391  -0.892642
H  -0.198072  -1.035777   0.703879
H   0.665812  -0.093668   0.247383
H  -0.091468  -1.554785  -1.045334
