butane_opt
 OpenBabel08242015413D

 14 13  0  0  0  0  0  0  0  0999 V2000
   -3.9543    0.2750   -0.0287 C   0  0  0  0  0  0  0  0  0  0  0  0
   -2.7092   -0.6321    0.0786 C   0  0  0  0  0  0  0  0  0  0  0  0
   -4.7883   -0.2463   -0.0526 H   0  0  0  0  0  0  0  0  0  0  0  0
   -4.0323    0.8900   -0.9712 H   0  0  0  0  0  0  0  0  0  0  0  0
   -4.0194    0.8957    0.8014 H   0  0  0  0  0  0  0  0  0  0  0  0
   -1.3833    0.1811    0.0863 C   0  0  0  0  0  0  0  0  0  0  0  0
   -2.6919   -1.3132   -0.7973 H   0  0  0  0  0  0  0  0  0  0  0  0
   -2.7849   -1.2288    0.9456 H   0  0  0  0  0  0  0  0  0  0  0  0
   -0.1478   -0.6861   -0.0111 C   0  0  0  0  0  0  0  0  0  0  0  0
   -1.4061    0.8923    0.9455 H   0  0  0  0  0  0  0  0  0  0  0  0
   -1.3406    0.7724   -0.7580 H   0  0  0  0  0  0  0  0  0  0  0  0
    0.0074   -1.4208    0.9498 H   0  0  0  0  0  0  0  0  0  0  0  0
    0.7350   -0.1002   -0.3034 H   0  0  0  0  0  0  0  0  0  0  0  0
   -0.3653   -1.2590   -0.8231 H   0  0  0  0  0  0  0  0  0  0  0  0
  1  2  1  0  0  0  0
  1  5  1  0  0  0  0
  2  6  1  0  0  0  0
  2  8  1  0  0  0  0
  3  1  1  0  0  0  0
  4  1  1  0  0  0  0
  6 10  1  0  0  0  0
  7  2  1  0  0  0  0
  9  6  1  0  0  0  0
  9 12  1  0  0  0  0
 11  6  1  0  0  0  0
 13  9  1  0  0  0  0
 14  9  1  0  0  0  0
M  END
$$$$
