butane_opt
 OpenBabel08242015413D

 14 13  0  0  0  0  0  0  0  0999 V2000
   -3.9429    0.2763    0.0645 C   0  0  0  0  0  0  0  0  0  0  0  0
   -2.6786   -0.6168    0.0057 C   0  0  0  0  0  0  0  0  0  0  0  0
   -4.8780   -0.3529    0.0795 H   0  0  0  0  0  0  0  0  0  0  0  0
   -4.0064    0.8419   -0.8446 H   0  0  0  0  0  0  0  0  0  0  0  0
   -3.8603    0.9008    0.8926 H   0  0  0  0  0  0  0  0  0  0  0  0
   -1.4141    0.1558   -0.0577 C   0  0  0  0  0  0  0  0  0  0  0  0
   -2.7111   -1.2576   -0.8354 H   0  0  0  0  0  0  0  0  0  0  0  0
   -2.6304   -1.2132    0.9226 H   0  0  0  0  0  0  0  0  0  0  0  0
   -0.1707   -0.6733    0.0792 C   0  0  0  0  0  0  0  0  0  0  0  0
   -1.4539    0.8512    0.8017 H   0  0  0  0  0  0  0  0  0  0  0  0
   -1.3372    0.8175   -0.9791 H   0  0  0  0  0  0  0  0  0  0  0  0
   -0.2704   -1.1743    0.9145 H   0  0  0  0  0  0  0  0  0  0  0  0
    0.7275   -0.1383    0.2241 H   0  0  0  0  0  0  0  0  0  0  0  0
   -0.1241   -1.4641   -0.8571 H   0  0  0  0  0  0  0  0  0  0  0  0
  1  3  1  0  0  0  0
  1  5  1  0  0  0  0
  2  1  1  0  0  0  0
  2  8  1  0  0  0  0
  4  1  1  0  0  0  0
  6  2  1  0  0  0  0
  6  9  1  0  0  0  0
  6 10  1  0  0  0  0
  7  2  1  0  0  0  0
  9 13  1  0  0  0  0
  9 12  1  0  0  0  0
 11  6  1  0  0  0  0
 14  9  1  0  0  0  0
M  END
$$$$
