butane_opt
 OpenBabel08242015413D

 14 13  0  0  0  0  0  0  0  0999 V2000
   -3.9354    0.2823    0.0479 C   0  0  0  0  0  0  0  0  0  0  0  0
   -2.6737   -0.6354    0.0149 C   0  0  0  0  0  0  0  0  0  0  0  0
   -4.8197   -0.2560    0.0225 H   0  0  0  0  0  0  0  0  0  0  0  0
   -3.9942    0.7218   -0.7754 H   0  0  0  0  0  0  0  0  0  0  0  0
   -4.0218    1.0739    0.9866 H   0  0  0  0  0  0  0  0  0  0  0  0
   -1.3926    0.1685   -0.0461 C   0  0  0  0  0  0  0  0  0  0  0  0
   -2.7736   -1.3591   -0.8763 H   0  0  0  0  0  0  0  0  0  0  0  0
   -2.6080   -1.3356    0.9258 H   0  0  0  0  0  0  0  0  0  0  0  0
   -0.1990   -0.6758    0.0798 C   0  0  0  0  0  0  0  0  0  0  0  0
   -1.4800    0.7827    0.7610 H   0  0  0  0  0  0  0  0  0  0  0  0
   -1.3837    0.9145   -0.9776 H   0  0  0  0  0  0  0  0  0  0  0  0
   -0.1950   -1.2275    0.9132 H   0  0  0  0  0  0  0  0  0  0  0  0
    0.7894   -0.0519    0.1067 H   0  0  0  0  0  0  0  0  0  0  0  0
   -0.1392   -1.3942   -0.7979 H   0  0  0  0  0  0  0  0  0  0  0  0
  1  5  1  0  0  0  0
  2  1  1  0  0  0  0
  2  8  1  0  0  0  0
  3  1  1  0  0  0  0
  4  1  1  0  0  0  0
  6  2  1  0  0  0  0
  6  9  1  0  0  0  0
  6 10  1  0  0  0  0
  7  2  1  0  0  0  0
  9 13  1  0  0  0  0
  9 12  1  0  0  0  0
 11  6  1  0  0  0  0
 14  9  1  0  0  0  0
M  END
$$$$
