butane_opt
 OpenBabel08242015413D

 14 13  0  0  0  0  0  0  0  0999 V2000
   -3.9564    0.2935   -0.0319 C   0  0  0  0  0  0  0  0  0  0  0  0
   -2.7092   -0.6437    0.0961 C   0  0  0  0  0  0  0  0  0  0  0  0
   -4.8284   -0.3056   -0.1853 H   0  0  0  0  0  0  0  0  0  0  0  0
   -3.9494    0.8139   -0.8838 H   0  0  0  0  0  0  0  0  0  0  0  0
   -4.0290    1.0664    0.9171 H   0  0  0  0  0  0  0  0  0  0  0  0
   -1.3955    0.1649    0.0556 C   0  0  0  0  0  0  0  0  0  0  0  0
   -2.6352   -1.2279   -0.6770 H   0  0  0  0  0  0  0  0  0  0  0  0
   -2.7857   -1.3356    1.0394 H   0  0  0  0  0  0  0  0  0  0  0  0
   -0.1515   -0.6880   -0.0236 C   0  0  0  0  0  0  0  0  0  0  0  0
   -1.3548    0.8351    0.9328 H   0  0  0  0  0  0  0  0  0  0  0  0
   -1.3755    0.7215   -0.8263 H   0  0  0  0  0  0  0  0  0  0  0  0
   -0.1348   -1.2598    0.8505 H   0  0  0  0  0  0  0  0  0  0  0  0
    0.8245   -0.0049   -0.0740 H   0  0  0  0  0  0  0  0  0  0  0  0
   -0.2159   -1.2746   -0.8020 H   0  0  0  0  0  0  0  0  0  0  0  0
  1  2  1  0  0  0  0
  1  5  1  0  0  0  0
  2  8  1  0  0  0  0
  3  1  1  0  0  0  0
  4  1  1  0  0  0  0
  6  2  1  0  0  0  0
  6 10  1  0  0  0  0
  7  2  1  0  0  0  0
  9  6  1  0  0  0  0
  9 12  1  0  0  0  0
 11  6  1  0  0  0  0
 13  9  1  0  0  0  0
 14  9  1  0  0  0  0
M  END
$$$$
