14
butane_opt
C  -3.974398   0.281929   0.062431
C  -2.712783  -0.635680  -0.025609
H  -4.855635  -0.283482   0.331642
H  -4.079605   0.959970  -0.818254
H  -3.862449   0.893656   0.872681
C  -1.382374   0.169313  -0.033963
H  -2.812067  -1.459898  -0.978230
H  -2.637303  -1.137346   0.738064
C  -0.139308  -0.687333   0.086128
H  -1.401884   0.836745   0.810143
H  -1.351971   0.891265  -0.991704
H  -0.211526  -1.323920   1.043451
H   0.789714  -0.084057   0.062915
H  -0.107502  -1.294427  -0.696505
