14
butane_opt
C  -3.914145   0.265236  -0.004742
C  -2.692003  -0.609521   0.085519
H  -4.892269  -0.380991  -0.092270
H  -3.840122   0.752825  -0.874471
H  -4.052741   0.961672   0.850122
C  -1.415790   0.202192   0.011567
H  -2.718672  -1.235926  -0.728029
H  -2.666779  -1.312327   1.004283
C  -0.177389  -0.701131   0.013949
H  -1.401196   0.880893   0.866306
H  -1.492565   0.744279  -0.856111
H  -0.154457  -1.208635   0.855164
H   0.692927  -0.113902   0.034611
H  -0.102075  -1.448941  -0.897301
