14
butane_opt
C  -3.935378   0.282295   0.047941
C  -2.673731  -0.635430   0.014900
H  -4.819684  -0.255970   0.022450
H  -3.994227   0.721780  -0.775399
H  -4.021845   1.073924   0.986583
C  -1.392628   0.168472  -0.046132
H  -2.773569  -1.359138  -0.876305
H  -2.608041  -1.335595   0.925805
C  -0.198983  -0.675763   0.079801
H  -1.479997   0.782654   0.760957
H  -1.383725   0.914532  -0.977602
H  -0.194990  -1.227475   0.913162
H   0.789378  -0.051947   0.106676
H  -0.139158  -1.394171  -0.797887
