butane_opt
 OpenBabel08242015413D

 14 13  0  0  0  0  0  0  0  0999 V2000
   -3.9224    0.2443    0.0589 C   0  0  0  0  0  0  0  0  0  0  0  0
   -2.7047   -0.5854    0.0233 C   0  0  0  0  0  0  0  0  0  0  0  0
   -4.8962   -0.4062   -0.1611 H   0  0  0  0  0  0  0  0  0  0  0  0
   -3.8272    0.7035   -0.7408 H   0  0  0  0  0  0  0  0  0  0  0  0
   -3.9604    1.1427    1.0395 H   0  0  0  0  0  0  0  0  0  0  0  0
   -1.4200    0.1911   -0.0457 C   0  0  0  0  0  0  0  0  0  0  0  0
   -2.7064   -1.2748   -0.8677 H   0  0  0  0  0  0  0  0  0  0  0  0
   -2.7189   -1.2046    0.9229 H   0  0  0  0  0  0  0  0  0  0  0  0
   -0.1711   -0.7084    0.0594 C   0  0  0  0  0  0  0  0  0  0  0  0
   -1.3590    0.8573    0.7708 H   0  0  0  0  0  0  0  0  0  0  0  0
   -1.3776    0.8393   -0.9776 H   0  0  0  0  0  0  0  0  0  0  0  0
   -0.2373   -1.3862    1.0261 H   0  0  0  0  0  0  0  0  0  0  0  0
    0.7032   -0.1637    0.0067 H   0  0  0  0  0  0  0  0  0  0  0  0
   -0.0096   -1.2972   -0.7043 H   0  0  0  0  0  0  0  0  0  0  0  0
  1  5  1  0  0  0  0
  2  1  1  0  0  0  0
  2  8  1  0  0  0  0
  3  1  1  0  0  0  0
  4  1  1  0  0  0  0
  6  2  1  0  0  0  0
  6  9  1  0  0  0  0
  6 10  1  0  0  0  0
  7  2  1  0  0  0  0
  9 12  1  0  0  0  0
 11  6  1  0  0  0  0
 13  9  1  0  0  0  0
 14  9  1  0  0  0  0
M  END
$$$$
