butane_opt
 OpenBabel08242015413D

 14 13  0  0  0  0  0  0  0  0999 V2000
   -3.9427    0.2846   -0.0406 C   0  0  0  0  0  0  0  0  0  0  0  0
   -2.6885   -0.6346    0.1032 C   0  0  0  0  0  0  0  0  0  0  0  0
   -4.8670   -0.3172   -0.0602 H   0  0  0  0  0  0  0  0  0  0  0  0
   -3.8213    0.9209   -0.9634 H   0  0  0  0  0  0  0  0  0  0  0  0
   -4.0592    0.9880    0.8223 H   0  0  0  0  0  0  0  0  0  0  0  0
   -1.3986    0.1587    0.0767 C   0  0  0  0  0  0  0  0  0  0  0  0
   -2.6369   -1.2818   -0.7084 H   0  0  0  0  0  0  0  0  0  0  0  0
   -2.8209   -1.2606    0.9653 H   0  0  0  0  0  0  0  0  0  0  0  0
   -0.1721   -0.6794   -0.0108 C   0  0  0  0  0  0  0  0  0  0  0  0
   -1.3985    0.8238    0.9340 H   0  0  0  0  0  0  0  0  0  0  0  0
   -1.4229    0.7652   -0.7829 H   0  0  0  0  0  0  0  0  0  0  0  0
   -0.0401   -1.2707    0.7933 H   0  0  0  0  0  0  0  0  0  0  0  0
    0.8025   -0.0356   -0.1972 H   0  0  0  0  0  0  0  0  0  0  0  0
   -0.3497   -1.3381   -0.8970 H   0  0  0  0  0  0  0  0  0  0  0  0
  1  2  1  0  0  0  0
  1  5  1  0  0  0  0
  2  8  1  0  0  0  0
  3  1  1  0  0  0  0
  4  1  1  0  0  0  0
  6  2  1  0  0  0  0
  6 10  1  0  0  0  0
  7  2  1  0  0  0  0
  9  6  1  0  0  0  0
  9 12  1  0  0  0  0
 11  6  1  0  0  0  0
 13  9  1  0  0  0  0
 14  9  1  0  0  0  0
M  END
$$$$
