14
butane_opt
C  -3.942669   0.253541   0.027218
C  -2.707751  -0.614772   0.035879
H  -4.871863  -0.412804  -0.137578
H  -3.881314   0.659338  -0.737018
H  -3.964977   1.142641   1.061803
C  -1.410663   0.227357  -0.025578
H  -2.772384  -1.265120  -0.838610
H  -2.701973  -1.306743   0.950773
C  -0.154120  -0.710169   0.053311
H  -1.478663   0.878361   0.806735
H  -1.415202   0.845056  -0.933713
H  -0.016243  -1.428396   1.005951
H   0.726077  -0.177414  -0.021939
H  -0.067445  -1.279400  -0.774594
