14
butane_opt
C  -3.944118   0.270991   0.045635
C  -2.686537  -0.631192   0.007422
H  -4.878024  -0.311730   0.095327
H  -4.103203   0.870712  -0.845560
H  -3.910664   0.992351   0.944722
C  -1.393737   0.178673  -0.025395
H  -2.697762  -1.314259  -0.860268
H  -2.688636  -1.244401   0.880350
C  -0.176326  -0.682159   0.059906
H  -1.427129   0.836507   0.804215
H  -1.342606   0.819894  -0.918128
H  -0.193850  -1.324980   0.981370
H   0.730687  -0.096909   0.091653
H  -0.098509  -1.337312  -0.782494
