14
butane_opt
C  -3.937490   0.279055   0.003651
C  -2.701127  -0.636022   0.039635
H  -4.742852  -0.252030   0.215812
H  -4.119004   1.118830  -1.031667
H  -3.914793   0.749630   0.751441
C  -1.388938   0.162650   0.038507
H  -2.631039  -1.333855  -0.796311
H  -2.730911  -1.257908   0.939747
C  -0.193438  -0.683069   0.024790
H  -1.379794   0.897580   0.970504
H  -1.326835   0.789857  -0.859293
H  -0.117642  -1.159266   0.834957
H   0.779761  -0.045646   0.022097
H  -0.201667  -1.428315  -0.924240
