14
butane_opt
C  -3.931739   0.246164   0.043312
C  -2.702076  -0.588068  -0.010835
H  -4.857707  -0.338186   0.115481
H  -3.980968   0.890998  -0.836171
H  -3.810321   0.927116   0.936557
C  -1.417409   0.189142  -0.007432
H  -2.732501  -1.294744  -0.880851
H  -2.735433  -1.238789   0.897074
C  -0.155742  -0.717939   0.056900
H  -1.369536   0.862170   0.830787
H  -1.451095   0.888400  -0.889184
H  -0.166679  -1.377635   0.971860
H   0.774708  -0.068598   0.046964
H  -0.200879  -1.275259  -0.720161
