butane_opt
 OpenBabel08242015413D

 14 13  0  0  0  0  0  0  0  0999 V2000
   -3.9273    0.2573   -0.0140 C   0  0  0  0  0  0  0  0  0  0  0  0
   -2.7016   -0.6096    0.0728 C   0  0  0  0  0  0  0  0  0  0  0  0
   -4.8792   -0.3982   -0.0573 H   0  0  0  0  0  0  0  0  0  0  0  0
   -3.8905    0.8270   -0.8551 H   0  0  0  0  0  0  0  0  0  0  0  0
   -3.9705    0.9963    0.8873 H   0  0  0  0  0  0  0  0  0  0  0  0
   -1.4138    0.2026    0.0324 C   0  0  0  0  0  0  0  0  0  0  0  0
   -2.7228   -1.2111   -0.7232 H   0  0  0  0  0  0  0  0  0  0  0  0
   -2.7590   -1.3052    1.0135 H   0  0  0  0  0  0  0  0  0  0  0  0
   -0.1664   -0.7038    0.0017 C   0  0  0  0  0  0  0  0  0  0  0  0
   -1.3536    0.8972    0.9026 H   0  0  0  0  0  0  0  0  0  0  0  0
   -1.4297    0.8345   -0.8843 H   0  0  0  0  0  0  0  0  0  0  0  0
   -0.1124   -1.3101    0.8794 H   0  0  0  0  0  0  0  0  0  0  0  0
    0.7275   -0.1484    0.0572 H   0  0  0  0  0  0  0  0  0  0  0  0
   -0.1210   -1.4226   -0.8878 H   0  0  0  0  0  0  0  0  0  0  0  0
  1  2  1  0  0  0  0
  1  5  1  0  0  0  0
  2  8  1  0  0  0  0
  3  1  1  0  0  0  0
  4  1  1  0  0  0  0
  6  2  1  0  0  0  0
  6 10  1  0  0  0  0
  7  2  1  0  0  0  0
  9  6  1  0  0  0  0
  9 13  1  0  0  0  0
  9 12  1  0  0  0  0
 11  6  1  0  0  0  0
 14  9  1  0  0  0  0
M  END
$$$$
