butane_opt
 OpenBabel08242015413D

 14 13  0  0  0  0  0  0  0  0999 V2000
   -3.9745    0.2702   -0.0075 C   0  0  0  0  0  0  0  0  0  0  0  0
   -2.7012   -0.6260    0.0946 C   0  0  0  0  0  0  0  0  0  0  0  0
   -4.8037   -0.2143   -0.0026 H   0  0  0  0  0  0  0  0  0  0  0  0
   -4.0187    0.9508   -0.9484 H   0  0  0  0  0  0  0  0  0  0  0  0
   -4.0007    0.9058    0.8229 H   0  0  0  0  0  0  0  0  0  0  0  0
   -1.3823    0.1632    0.0051 C   0  0  0  0  0  0  0  0  0  0  0  0
   -2.7080   -1.3180   -0.7663 H   0  0  0  0  0  0  0  0  0  0  0  0
   -2.7370   -1.3015    1.0201 H   0  0  0  0  0  0  0  0  0  0  0  0
   -0.1416   -0.6766    0.0031 C   0  0  0  0  0  0  0  0  0  0  0  0
   -1.4138    0.8494    0.9204 H   0  0  0  0  0  0  0  0  0  0  0  0
   -1.4267    0.7615   -0.8442 H   0  0  0  0  0  0  0  0  0  0  0  0
   -0.2325   -1.1147    0.8016 H   0  0  0  0  0  0  0  0  0  0  0  0
    0.7600   -0.0439    0.1959 H   0  0  0  0  0  0  0  0  0  0  0  0
   -0.0611   -1.5019   -0.9355 H   0  0  0  0  0  0  0  0  0  0  0  0
  1  3  1  0  0  0  0
  1  2  1  0  0  0  0
  1  5  1  0  0  0  0
  2  8  1  0  0  0  0
  4  1  1  0  0  0  0
  6  2  1  0  0  0  0
  6 10  1  0  0  0  0
  7  2  1  0  0  0  0
  9  6  1  0  0  0  0
  9 13  1  0  0  0  0
  9 12  1  0  0  0  0
 11  6  1  0  0  0  0
 14  9  1  0  0  0  0
M  END
$$$$
