butane_opt
 OpenBabel08242015413D

 14 13  0  0  0  0  0  0  0  0999 V2000
   -3.9572    0.2830    0.0476 C   0  0  0  0  0  0  0  0  0  0  0  0
   -2.6668   -0.6371    0.0038 C   0  0  0  0  0  0  0  0  0  0  0  0
   -4.9022   -0.3049    0.0152 H   0  0  0  0  0  0  0  0  0  0  0  0
   -3.9847    0.7225   -0.7298 H   0  0  0  0  0  0  0  0  0  0  0  0
   -3.9333    1.0876    0.9771 H   0  0  0  0  0  0  0  0  0  0  0  0
   -1.4042    0.1586   -0.0332 C   0  0  0  0  0  0  0  0  0  0  0  0
   -2.7348   -1.2786   -0.8123 H   0  0  0  0  0  0  0  0  0  0  0  0
   -2.6448   -1.3067    0.9454 H   0  0  0  0  0  0  0  0  0  0  0  0
   -0.1717   -0.6742    0.0614 C   0  0  0  0  0  0  0  0  0  0  0  0
   -1.4057    0.8193    0.7609 H   0  0  0  0  0  0  0  0  0  0  0  0
   -1.3566    0.9241   -1.0007 H   0  0  0  0  0  0  0  0  0  0  0  0
   -0.2900   -1.2841    0.9757 H   0  0  0  0  0  0  0  0  0  0  0  0
    0.7507   -0.0871    0.1822 H   0  0  0  0  0  0  0  0  0  0  0  0
   -0.1240   -1.3455   -0.8131 H   0  0  0  0  0  0  0  0  0  0  0  0
  1  5  1  0  0  0  0
  2  1  1  0  0  0  0
  2  8  1  0  0  0  0
  3  1  1  0  0  0  0
  4  1  1  0  0  0  0
  6  2  1  0  0  0  0
  6  9  1  0  0  0  0
  6 10  1  0  0  0  0
  7  2  1  0  0  0  0
  9 13  1  0  0  0  0
  9 12  1  0  0  0  0
 11  6  1  0  0  0  0
 14  9  1  0  0  0  0
M  END
$$$$
