14
butane_opt
C  -3.926172   0.251029   0.068257
C  -2.707898  -0.590033   0.012242
H  -4.899731  -0.419340  -0.216522
H  -3.863466   0.611393  -0.682512
H  -3.925712   1.138620   1.073519
C  -1.415595   0.192528  -0.055281
H  -2.775689  -1.189489  -0.841212
H  -2.786209  -1.149259   0.868452
C  -0.157993  -0.718410   0.073338
H  -1.392919   0.815295   0.746673
H  -1.444049   0.897751  -1.021124
H  -0.167519  -1.423065   1.066915
H   0.752897  -0.110285   0.035755
H  -0.029470  -1.287886  -0.734991
