14
butane_opt
C  -3.956036   0.246556  -0.018364
C  -2.717317  -0.607411   0.097597
H  -4.813130  -0.360310  -0.049924
H  -3.871643   1.005157  -1.004231
H  -3.968510   0.822374   0.783730
C  -1.414292   0.210437   0.049628
H  -2.750289  -1.183215  -0.694760
H  -2.754641  -1.291779   1.060626
C  -0.144284  -0.704179  -0.010012
H  -1.307283   0.877770   0.883306
H  -1.371858   0.862886  -0.891834
H  -0.064525  -1.109792   0.736771
H   0.709381  -0.174807   0.194638
H  -0.050524  -1.674265  -1.045547
