14
butane_opt
C  -3.920571   0.243353  -0.055450
C  -2.703792  -0.597425   0.078991
H  -4.859474  -0.406174   0.039592
H  -3.946613   0.890280  -0.929084
H  -3.952347   0.867158   0.765757
C  -1.419973   0.220919   0.104741
H  -2.630231  -1.199699  -0.707527
H  -2.739339  -1.273545   1.013161
C  -0.168615  -0.718781  -0.034078
H  -1.356593   0.934750   1.029851
H  -1.476445   0.792365  -0.716879
H  -0.016936  -1.445045   0.923101
H   0.728490  -0.099989  -0.237259
H  -0.208152  -1.316750  -0.870904
