butane_opt
 OpenBabel08242015413D

 14 13  0  0  0  0  0  0  0  0999 V2000
   -3.9206    0.2434   -0.0554 C   0  0  0  0  0  0  0  0  0  0  0  0
   -2.7038   -0.5974    0.0790 C   0  0  0  0  0  0  0  0  0  0  0  0
   -4.8595   -0.4062    0.0396 H   0  0  0  0  0  0  0  0  0  0  0  0
   -3.9466    0.8903   -0.9291 H   0  0  0  0  0  0  0  0  0  0  0  0
   -3.9523    0.8672    0.7658 H   0  0  0  0  0  0  0  0  0  0  0  0
   -1.4200    0.2209    0.1047 C   0  0  0  0  0  0  0  0  0  0  0  0
   -2.6302   -1.1997   -0.7075 H   0  0  0  0  0  0  0  0  0  0  0  0
   -2.7393   -1.2735    1.0132 H   0  0  0  0  0  0  0  0  0  0  0  0
   -0.1686   -0.7188   -0.0341 C   0  0  0  0  0  0  0  0  0  0  0  0
   -1.3566    0.9347    1.0299 H   0  0  0  0  0  0  0  0  0  0  0  0
   -1.4764    0.7924   -0.7169 H   0  0  0  0  0  0  0  0  0  0  0  0
   -0.0169   -1.4450    0.9231 H   0  0  0  0  0  0  0  0  0  0  0  0
    0.7285   -0.1000   -0.2373 H   0  0  0  0  0  0  0  0  0  0  0  0
   -0.2082   -1.3168   -0.8709 H   0  0  0  0  0  0  0  0  0  0  0  0
  1  3  1  0  0  0  0
  1  2  1  0  0  0  0
  1  5  1  0  0  0  0
  2  6  1  0  0  0  0
  2  8  1  0  0  0  0
  4  1  1  0  0  0  0
  6 10  1  0  0  0  0
  7  2  1  0  0  0  0
  9  6  1  0  0  0  0
  9 12  1  0  0  0  0
 11  6  1  0  0  0  0
 13  9  1  0  0  0  0
 14  9  1  0  0  0  0
M  END
$$$$
