14
butane_opt
C  -3.918488   0.284713   0.079973
C  -2.686043  -0.641790  -0.036587
H  -4.824966  -0.326649   0.260800
H  -4.133041   0.999092  -0.866612
H  -3.874681   0.877938   0.917043
C  -1.409062   0.156950  -0.050519
H  -2.753848  -1.432790  -0.972316
H  -2.637898  -1.160149   0.764315
C  -0.176320  -0.669484   0.101555
H  -1.443090   0.831770   0.787948
H  -1.439521   0.884506  -0.957194
H  -0.217892  -1.355469   1.007342
H   0.764958  -0.031528   0.121724
H  -0.189028  -1.315703  -0.752089
