14
butane_opt
C  -3.938338   0.254808   0.034597
C  -2.716207  -0.614861   0.041724
H  -4.873264  -0.336607  -0.002307
H  -3.982413   0.885385  -0.843598
H  -4.069788   0.938700   0.874423
C  -1.385644   0.199891  -0.009282
H  -2.846372  -1.303796  -0.827434
H  -2.688090  -1.244159   0.932326
C  -0.146660  -0.709667   0.040060
H  -1.442339   0.891114   0.787870
H  -1.385735   0.936048  -0.971919
H  -0.194471  -1.187750   0.879972
H   0.727820  -0.169046   0.152634
H  -0.008857  -1.466590  -0.847622
