butane_opt
 OpenBabel08242015413D

 14 13  0  0  0  0  0  0  0  0999 V2000
   -3.9437    0.2401   -0.0215 C   0  0  0  0  0  0  0  0  0  0  0  0
   -2.7126   -0.6143    0.0963 C   0  0  0  0  0  0  0  0  0  0  0  0
   -4.8417   -0.3188    0.0326 H   0  0  0  0  0  0  0  0  0  0  0  0
   -3.9843    0.9854   -1.0210 H   0  0  0  0  0  0  0  0  0  0  0  0
   -3.9893    0.7942    0.7858 H   0  0  0  0  0  0  0  0  0  0  0  0
   -1.4158    0.2288    0.0291 C   0  0  0  0  0  0  0  0  0  0  0  0
   -2.7028   -1.1434   -0.6626 H   0  0  0  0  0  0  0  0  0  0  0  0
   -2.7900   -1.2680    1.0542 H   0  0  0  0  0  0  0  0  0  0  0  0
   -0.1436   -0.7218   -0.0040 C   0  0  0  0  0  0  0  0  0  0  0  0
   -1.3820    0.9753    0.9213 H   0  0  0  0  0  0  0  0  0  0  0  0
   -1.3991    0.7638   -0.8200 H   0  0  0  0  0  0  0  0  0  0  0  0
   -0.0965   -1.0932    0.7342 H   0  0  0  0  0  0  0  0  0  0  0  0
    0.8127   -0.1170    0.1729 H   0  0  0  0  0  0  0  0  0  0  0  0
   -0.0542   -1.6494   -1.0008 H   0  0  0  0  0  0  0  0  0  0  0  0
  1  3  1  0  0  0  0
  1  2  1  0  0  0  0
  1  5  1  0  0  0  0
  2  8  1  0  0  0  0
  4  1  1  0  0  0  0
  6  2  1  0  0  0  0
  6 10  1  0  0  0  0
  7  2  1  0  0  0  0
  9  6  1  0  0  0  0
  9 13  1  0  0  0  0
  9 12  1  0  0  0  0
 11  6  1  0  0  0  0
 14  9  1  0  0  0  0
M  END
$$$$
