14
butane_opt
C  -3.954285   0.277443   0.002778
C  -2.688670  -0.607003   0.051547
H  -4.854364  -0.301554   0.204276
H  -4.025144   1.009285  -0.986306
H  -3.925135   0.792156   0.742123
C  -1.379946   0.153359   0.021221
H  -2.676017  -1.318578  -0.824347
H  -2.721239  -1.312083   0.940157
C  -0.174217  -0.670671   0.012575
H  -1.315164   0.932870   0.968203
H  -1.482890   0.687384  -0.800631
H  -0.216784  -1.275303   0.881080
H   0.736244  -0.098841   0.108712
H  -0.182462  -1.408978  -0.854925
