14
butane_opt
C  -3.943697   0.240083  -0.021457
C  -2.712633  -0.614299   0.096348
H  -4.841663  -0.318782   0.032641
H  -3.984321   0.985429  -1.021021
H  -3.989254   0.794216   0.785786
C  -1.415789   0.228797   0.029121
H  -2.702812  -1.143358  -0.662597
H  -2.790029  -1.268029   1.054209
C  -0.143646  -0.721813  -0.003984
H  -1.382035   0.975273   0.921257
H  -1.399083   0.763789  -0.819982
H  -0.096523  -1.093196   0.734155
H   0.812728  -0.117032   0.172875
H  -0.054171  -1.649401  -1.000751
