butane_opt
 OpenBabel08242015413D

 14 13  0  0  0  0  0  0  0  0999 V2000
   -3.9442    0.2488    0.0347 C   0  0  0  0  0  0  0  0  0  0  0  0
   -2.6812   -0.6076    0.0111 C   0  0  0  0  0  0  0  0  0  0  0  0
   -4.9011   -0.4115   -0.0286 H   0  0  0  0  0  0  0  0  0  0  0  0
   -3.9628    0.7485   -0.7540 H   0  0  0  0  0  0  0  0  0  0  0  0
   -3.8898    1.1073    1.0084 H   0  0  0  0  0  0  0  0  0  0  0  0
   -1.4154    0.2046   -0.0028 C   0  0  0  0  0  0  0  0  0  0  0  0
   -2.7524   -1.3834   -0.9050 H   0  0  0  0  0  0  0  0  0  0  0  0
   -2.7044   -1.1654    0.8336 H   0  0  0  0  0  0  0  0  0  0  0  0
   -0.1713   -0.7084    0.0620 C   0  0  0  0  0  0  0  0  0  0  0  0
   -1.4059    0.8331    0.7768 H   0  0  0  0  0  0  0  0  0  0  0  0
   -1.4097    0.9577   -0.9782 H   0  0  0  0  0  0  0  0  0  0  0  0
    0.0327   -1.4791    1.0704 H   0  0  0  0  0  0  0  0  0  0  0  0
    0.7135   -0.1213   -0.1238 H   0  0  0  0  0  0  0  0  0  0  0  0
   -0.1935   -1.2144   -0.6801 H   0  0  0  0  0  0  0  0  0  0  0  0
  1  5  1  0  0  0  0
  2  1  1  0  0  0  0
  2  8  1  0  0  0  0
  3  1  1  0  0  0  0
  4  1  1  0  0  0  0
  6  2  1  0  0  0  0
  6  9  1  0  0  0  0
  6 10  1  0  0  0  0
  7  2  1  0  0  0  0
  9 12  1  0  0  0  0
 11  6  1  0  0  0  0
 13  9  1  0  0  0  0
 14  9  1  0  0  0  0
M  END
$$$$
