14
butane_opt
C  -3.943407   0.278863  -0.030273
C  -2.704051  -0.620153   0.096986
H  -4.831369  -0.279486   0.055235
H  -3.875360   0.977020  -1.000485
H  -3.993139   0.889792   0.780494
C  -1.409315   0.164562   0.045748
H  -2.699060  -1.268230  -0.671704
H  -2.740044  -1.325649   1.048376
C  -0.161804  -0.682273  -0.003372
H  -1.314181   0.770145   0.857421
H  -1.424784   0.779637  -0.823849
H  -0.165912  -1.044266   0.712026
H   0.832913  -0.022024   0.161538
H  -0.207418  -1.619723  -1.015206
