butane_opt
 OpenBabel08242015413D

 14 13  0  0  0  0  0  0  0  0999 V2000
   -3.9434    0.2789   -0.0303 C   0  0  0  0  0  0  0  0  0  0  0  0
   -2.7041   -0.6202    0.0970 C   0  0  0  0  0  0  0  0  0  0  0  0
   -4.8314   -0.2795    0.0552 H   0  0  0  0  0  0  0  0  0  0  0  0
   -3.8754    0.9770   -1.0005 H   0  0  0  0  0  0  0  0  0  0  0  0
   -3.9931    0.8898    0.7805 H   0  0  0  0  0  0  0  0  0  0  0  0
   -1.4093    0.1646    0.0457 C   0  0  0  0  0  0  0  0  0  0  0  0
   -2.6991   -1.2682   -0.6717 H   0  0  0  0  0  0  0  0  0  0  0  0
   -2.7400   -1.3256    1.0484 H   0  0  0  0  0  0  0  0  0  0  0  0
   -0.1618   -0.6823   -0.0034 C   0  0  0  0  0  0  0  0  0  0  0  0
   -1.3142    0.7701    0.8574 H   0  0  0  0  0  0  0  0  0  0  0  0
   -1.4248    0.7796   -0.8238 H   0  0  0  0  0  0  0  0  0  0  0  0
   -0.1659   -1.0443    0.7120 H   0  0  0  0  0  0  0  0  0  0  0  0
    0.8329   -0.0220    0.1615 H   0  0  0  0  0  0  0  0  0  0  0  0
   -0.2074   -1.6197   -1.0152 H   0  0  0  0  0  0  0  0  0  0  0  0
  1  3  1  0  0  0  0
  1  2  1  0  0  0  0
  1  5  1  0  0  0  0
  2  8  1  0  0  0  0
  4  1  1  0  0  0  0
  6  2  1  0  0  0  0
  6 10  1  0  0  0  0
  7  2  1  0  0  0  0
  9  6  1  0  0  0  0
  9 13  1  0  0  0  0
  9 12  1  0  0  0  0
 11  6  1  0  0  0  0
 14  9  1  0  0  0  0
M  END
$$$$
