14
butane_opt
C  -3.929341   0.255018   0.038574
C  -2.692184  -0.604504   0.021817
H  -4.857946  -0.365526   0.127772
H  -3.970725   0.893868  -0.899000
H  -3.980169   0.867145   0.872693
C  -1.418031   0.196649  -0.009422
H  -2.780044  -1.328732  -0.892766
H  -2.703059  -1.184144   0.894567
C  -0.159413  -0.698834   0.049503
H  -1.441045   0.886936   0.838494
H  -1.385745   0.831962  -0.921156
H  -0.148666  -1.327970   0.974925
H   0.743520  -0.119118   0.056070
H  -0.105326  -1.410914  -0.821138
