butane_opt
 OpenBabel08242015413D

 14 13  0  0  0  0  0  0  0  0999 V2000
   -3.9336    0.2842   -0.0407 C   0  0  0  0  0  0  0  0  0  0  0  0
   -2.7055   -0.6190    0.1122 C   0  0  0  0  0  0  0  0  0  0  0  0
   -4.8063   -0.2833   -0.2552 H   0  0  0  0  0  0  0  0  0  0  0  0
   -3.8796    0.7579   -0.8735 H   0  0  0  0  0  0  0  0  0  0  0  0
   -4.1349    1.0519    0.8386 H   0  0  0  0  0  0  0  0  0  0  0  0
   -1.4018    0.1477    0.0590 C   0  0  0  0  0  0  0  0  0  0  0  0
   -2.6341   -1.2020   -0.6349 H   0  0  0  0  0  0  0  0  0  0  0  0
   -2.7350   -1.4264    1.1226 H   0  0  0  0  0  0  0  0  0  0  0  0
   -0.1714   -0.6775   -0.0210 C   0  0  0  0  0  0  0  0  0  0  0  0
   -1.2776    0.9022    0.9468 H   0  0  0  0  0  0  0  0  0  0  0  0
   -1.4196    0.7625   -0.8282 H   0  0  0  0  0  0  0  0  0  0  0  0
   -0.0560   -1.2230    0.8559 H   0  0  0  0  0  0  0  0  0  0  0  0
    0.7810   -0.0359   -0.0607 H   0  0  0  0  0  0  0  0  0  0  0  0
   -0.3211   -1.4017   -0.9749 H   0  0  0  0  0  0  0  0  0  0  0  0
  1  2  1  0  0  0  0
  1  5  1  0  0  0  0
  2  8  1  0  0  0  0
  3  1  1  0  0  0  0
  4  1  1  0  0  0  0
  6  2  1  0  0  0  0
  6 10  1  0  0  0  0
  7  2  1  0  0  0  0
  9  6  1  0  0  0  0
  9 12  1  0  0  0  0
 11  6  1  0  0  0  0
 13  9  1  0  0  0  0
 14  9  1  0  0  0  0
M  END
$$$$
