14
butane_opt
C  -3.946042   0.274883  -0.051552
C  -2.707103  -0.624585   0.126820
H  -4.881413  -0.292995  -0.192542
H  -3.943538   0.850970  -0.895895
H  -4.042788   1.037219   0.859861
C  -1.393949   0.172204   0.072047
H  -2.703750  -1.257631  -0.713250
H  -2.798150  -1.313301   1.045385
C  -0.142816  -0.676827  -0.024699
H  -1.328481   0.748062   0.885762
H  -1.497266   0.774363  -0.836742
H  -0.084200  -1.255027   0.807195
H   0.761252  -0.065709  -0.027063
H  -0.234049  -1.439282  -0.961312
