butane_opt
 OpenBabel08242015413D

 14 13  0  0  0  0  0  0  0  0999 V2000
   -3.9516    0.2485    0.0304 C   0  0  0  0  0  0  0  0  0  0  0  0
   -2.7083   -0.6016    0.0211 C   0  0  0  0  0  0  0  0  0  0  0  0
   -4.8740   -0.3368    0.1059 H   0  0  0  0  0  0  0  0  0  0  0  0
   -4.0655    0.8883   -0.8638 H   0  0  0  0  0  0  0  0  0  0  0  0
   -3.8970    0.9213    0.9048 H   0  0  0  0  0  0  0  0  0  0  0  0
   -1.4080    0.1946   -0.0038 C   0  0  0  0  0  0  0  0  0  0  0  0
   -2.7343   -1.2842   -0.8676 H   0  0  0  0  0  0  0  0  0  0  0  0
   -2.7320   -1.2047    0.8877 H   0  0  0  0  0  0  0  0  0  0  0  0
   -0.1437   -0.7076    0.0493 C   0  0  0  0  0  0  0  0  0  0  0  0
   -1.4100    0.8880    0.8485 H   0  0  0  0  0  0  0  0  0  0  0  0
   -1.3408    0.8580   -0.9214 H   0  0  0  0  0  0  0  0  0  0  0  0
   -0.1298   -1.3554    0.9480 H   0  0  0  0  0  0  0  0  0  0  0  0
    0.7750   -0.0896    0.0371 H   0  0  0  0  0  0  0  0  0  0  0  0
   -0.0695   -1.3705   -0.8068 H   0  0  0  0  0  0  0  0  0  0  0  0
  1  3  1  0  0  0  0
  1  5  1  0  0  0  0
  2  1  1  0  0  0  0
  2  8  1  0  0  0  0
  4  1  1  0  0  0  0
  6  2  1  0  0  0  0
  6  9  1  0  0  0  0
  6 10  1  0  0  0  0
  7  2  1  0  0  0  0
  9 12  1  0  0  0  0
 11  6  1  0  0  0  0
 13  9  1  0  0  0  0
 14  9  1  0  0  0  0
M  END
$$$$
