butane_opt
 OpenBabel08242015413D

 14 13  0  0  0  0  0  0  0  0999 V2000
   -3.9697    0.2848   -0.0437 C   0  0  0  0  0  0  0  0  0  0  0  0
   -2.6958   -0.6417    0.0859 C   0  0  0  0  0  0  0  0  0  0  0  0
   -4.8657   -0.3371   -0.0370 H   0  0  0  0  0  0  0  0  0  0  0  0
   -3.9179    0.9555   -1.0233 H   0  0  0  0  0  0  0  0  0  0  0  0
   -4.0274    0.9346    0.8111 H   0  0  0  0  0  0  0  0  0  0  0  0
   -1.3838    0.1723    0.1079 C   0  0  0  0  0  0  0  0  0  0  0  0
   -2.6147   -1.2935   -0.7402 H   0  0  0  0  0  0  0  0  0  0  0  0
   -2.8380   -1.2195    1.0053 H   0  0  0  0  0  0  0  0  0  0  0  0
   -0.1636   -0.6887   -0.0253 C   0  0  0  0  0  0  0  0  0  0  0  0
   -1.2791    0.8878    0.9919 H   0  0  0  0  0  0  0  0  0  0  0  0
   -1.4186    0.7999   -0.7911 H   0  0  0  0  0  0  0  0  0  0  0  0
    0.0560   -1.4168    0.8598 H   0  0  0  0  0  0  0  0  0  0  0  0
    0.7884   -0.0279   -0.2522 H   0  0  0  0  0  0  0  0  0  0  0  0
   -0.3592   -1.2626   -0.8606 H   0  0  0  0  0  0  0  0  0  0  0  0
  1  3  1  0  0  0  0
  1  2  1  0  0  0  0
  1  5  1  0  0  0  0
  2  6  1  0  0  0  0
  2  8  1  0  0  0  0
  4  1  1  0  0  0  0
  6 10  1  0  0  0  0
  7  2  1  0  0  0  0
  9  6  1  0  0  0  0
  9 12  1  0  0  0  0
 11  6  1  0  0  0  0
 13  9  1  0  0  0  0
 14  9  1  0  0  0  0
M  END
$$$$
