14
butane_opt
C  -3.921597   0.287933   0.056791
C  -2.698245  -0.646206  -0.002897
H  -4.807871  -0.313210   0.057407
H  -4.063942   0.788774  -0.719607
H  -3.950397   1.075258   0.986854
C  -1.397423   0.169216  -0.036721
H  -2.721056  -1.298827  -0.859436
H  -2.710882  -1.251223   0.901908
C  -0.178693  -0.671397   0.068527
H  -1.470011   0.735108   0.680557
H  -1.353366   0.849693  -1.003109
H  -0.248056  -1.330159   0.995652
H   0.726820  -0.049504   0.217134
H  -0.082313  -1.355261  -0.825502
