butane_opt
 OpenBabel08242015413D

 14 13  0  0  0  0  0  0  0  0999 V2000
   -3.9513    0.2723   -0.0358 C   0  0  0  0  0  0  0  0  0  0  0  0
   -2.6862   -0.6133    0.0535 C   0  0  0  0  0  0  0  0  0  0  0  0
   -4.7973   -0.2600    0.3208 H   0  0  0  0  0  0  0  0  0  0  0  0
   -4.1003    1.1467   -1.0612 H   0  0  0  0  0  0  0  0  0  0  0  0
   -3.8581    0.7190    0.7219 H   0  0  0  0  0  0  0  0  0  0  0  0
   -1.3981    0.1501    0.0870 C   0  0  0  0  0  0  0  0  0  0  0  0
   -2.5676   -1.2974   -0.7809 H   0  0  0  0  0  0  0  0  0  0  0  0
   -2.7469   -1.3606    1.0527 H   0  0  0  0  0  0  0  0  0  0  0  0
   -0.1789   -0.6728   -0.0169 C   0  0  0  0  0  0  0  0  0  0  0  0
   -1.3928    0.9013    0.9935 H   0  0  0  0  0  0  0  0  0  0  0  0
   -1.3994    0.6941   -0.7855 H   0  0  0  0  0  0  0  0  0  0  0  0
   -0.2255   -1.1497    0.8146 H   0  0  0  0  0  0  0  0  0  0  0  0
    0.8010   -0.0604    0.0156 H   0  0  0  0  0  0  0  0  0  0  0  0
   -0.1711   -1.4110   -0.9425 H   0  0  0  0  0  0  0  0  0  0  0  0
  1  2  1  0  0  0  0
  1  3  1  0  0  0  0
  1  5  1  0  0  0  0
  2  6  1  0  0  0  0
  2  8  1  0  0  0  0
  4  1  1  0  0  0  0
  6 10  1  0  0  0  0
  7  2  1  0  0  0  0
  9 13  1  0  0  0  0
  9  6  1  0  0  0  0
  9 12  1  0  0  0  0
 11  6  1  0  0  0  0
 14  9  1  0  0  0  0
M  END
$$$$
