butane_opt
 OpenBabel08242015413D

 14 13  0  0  0  0  0  0  0  0999 V2000
   -3.9383    0.2403   -0.0219 C   0  0  0  0  0  0  0  0  0  0  0  0
   -2.7191   -0.5970    0.0871 C   0  0  0  0  0  0  0  0  0  0  0  0
   -4.8998   -0.3754   -0.0417 H   0  0  0  0  0  0  0  0  0  0  0  0
   -3.9525    0.9229   -0.9799 H   0  0  0  0  0  0  0  0  0  0  0  0
   -4.0228    0.8572    0.7638 H   0  0  0  0  0  0  0  0  0  0  0  0
   -1.4167    0.2209    0.0664 C   0  0  0  0  0  0  0  0  0  0  0  0
   -2.7037   -1.3340   -0.7544 H   0  0  0  0  0  0  0  0  0  0  0  0
   -2.6980   -1.1831    0.9284 H   0  0  0  0  0  0  0  0  0  0  0  0
   -0.1368   -0.7087   -0.0115 C   0  0  0  0  0  0  0  0  0  0  0  0
   -1.3798    0.9350    0.9471 H   0  0  0  0  0  0  0  0  0  0  0  0
   -1.3721    0.7518   -0.7672 H   0  0  0  0  0  0  0  0  0  0  0  0
    0.0603   -1.3971    0.8976 H   0  0  0  0  0  0  0  0  0  0  0  0
    0.6635   -0.2022   -0.1851 H   0  0  0  0  0  0  0  0  0  0  0  0
   -0.1694   -1.3231   -0.8209 H   0  0  0  0  0  0  0  0  0  0  0  0
  1  2  1  0  0  0  0
  1  5  1  0  0  0  0
  2  8  1  0  0  0  0
  3  1  1  0  0  0  0
  4  1  1  0  0  0  0
  6  2  1  0  0  0  0
  6 10  1  0  0  0  0
  7  2  1  0  0  0  0
  9  6  1  0  0  0  0
  9 12  1  0  0  0  0
 11  6  1  0  0  0  0
 13  9  1  0  0  0  0
 14  9  1  0  0  0  0
M  END
$$$$
