butane_opt
 OpenBabel08242015413D

 14 13  0  0  0  0  0  0  0  0999 V2000
   -3.9367    0.2454   -0.0116 C   0  0  0  0  0  0  0  0  0  0  0  0
   -2.6984   -0.5942    0.0427 C   0  0  0  0  0  0  0  0  0  0  0  0
   -4.8565   -0.2924    0.3307 H   0  0  0  0  0  0  0  0  0  0  0  0
   -4.0455    1.0567   -1.0402 H   0  0  0  0  0  0  0  0  0  0  0  0
   -3.8484    0.6970    0.7211 H   0  0  0  0  0  0  0  0  0  0  0  0
   -1.4119    0.1853    0.0596 C   0  0  0  0  0  0  0  0  0  0  0  0
   -2.6919   -1.2661   -0.8151 H   0  0  0  0  0  0  0  0  0  0  0  0
   -2.6727   -1.1867    0.9052 H   0  0  0  0  0  0  0  0  0  0  0  0
   -0.1617   -0.7080    0.0207 C   0  0  0  0  0  0  0  0  0  0  0  0
   -1.4237    0.8844    0.9168 H   0  0  0  0  0  0  0  0  0  0  0  0
   -1.4369    0.7999   -0.8815 H   0  0  0  0  0  0  0  0  0  0  0  0
   -0.0825   -1.1845    0.8012 H   0  0  0  0  0  0  0  0  0  0  0  0
    0.7811   -0.0784    0.0622 H   0  0  0  0  0  0  0  0  0  0  0  0
   -0.2378   -1.4397   -0.9190 H   0  0  0  0  0  0  0  0  0  0  0  0
  1  2  1  0  0  0  0
  1  3  1  0  0  0  0
  1  5  1  0  0  0  0
  2  6  1  0  0  0  0
  2  8  1  0  0  0  0
  4  1  1  0  0  0  0
  6 10  1  0  0  0  0
  7  2  1  0  0  0  0
  9  6  1  0  0  0  0
  9 13  1  0  0  0  0
  9 12  1  0  0  0  0
 11  6  1  0  0  0  0
 14  9  1  0  0  0  0
M  END
$$$$
