14
butane_opt
C  -3.937952   0.272280  -0.027416
C  -2.683829  -0.619518   0.082007
H  -4.806686  -0.307086   0.027196
H  -3.892864   1.055265  -1.063790
H  -4.028588   0.841102   0.753743
C  -1.427433   0.144388   0.089458
H  -2.636923  -1.263592  -0.730510
H  -2.741348  -1.250535   0.981942
C  -0.171003  -0.674246  -0.017930
H  -1.361356   0.912683   1.007181
H  -1.387802   0.696627  -0.810194
H  -0.102247  -1.269990   0.843656
H   0.811050   0.006742  -0.183915
H  -0.251960  -1.346914  -0.917281
