14
butane_opt
C  -3.956856   0.253117  -0.005144
C  -2.706900  -0.608533   0.047891
H  -4.856567  -0.316697   0.165225
H  -3.969267   1.012415  -0.974965
H  -3.934685   0.803048   0.763988
C  -1.391041   0.193526   0.047013
H  -2.716113  -1.241598  -0.772833
H  -2.738806  -1.277730   0.943321
C  -0.157305  -0.701091   0.011597
H  -1.358580   0.914545   0.929548
H  -1.408747   0.836175  -0.838493
H  -0.062402  -1.236069   0.864378
H   0.720662  -0.146745   0.038758
H  -0.153699  -1.468556  -0.912162
