butane_opt
 OpenBabel08242015413D

 14 13  0  0  0  0  0  0  0  0999 V2000
   -3.9345    0.2606    0.0538 C   0  0  0  0  0  0  0  0  0  0  0  0
   -2.7110   -0.5964   -0.0228 C   0  0  0  0  0  0  0  0  0  0  0  0
   -4.8957   -0.3855    0.3277 H   0  0  0  0  0  0  0  0  0  0  0  0
   -4.0048    0.9537   -0.9288 H   0  0  0  0  0  0  0  0  0  0  0  0
   -3.7627    0.7964    0.8399 H   0  0  0  0  0  0  0  0  0  0  0  0
   -1.4100    0.1910   -0.0152 C   0  0  0  0  0  0  0  0  0  0  0  0
   -2.7139   -1.3002   -0.8998 H   0  0  0  0  0  0  0  0  0  0  0  0
   -2.7247   -1.1312    0.8656 H   0  0  0  0  0  0  0  0  0  0  0  0
   -0.1675   -0.7144    0.0763 C   0  0  0  0  0  0  0  0  0  0  0  0
   -1.4660    0.8455    0.8210 H   0  0  0  0  0  0  0  0  0  0  0  0
   -1.3058    0.8133   -0.9101 H   0  0  0  0  0  0  0  0  0  0  0  0
   -0.1207   -1.2463    0.9192 H   0  0  0  0  0  0  0  0  0  0  0  0
    0.7754   -0.1383    0.0429 H   0  0  0  0  0  0  0  0  0  0  0  0
   -0.1245   -1.3653   -0.7572 H   0  0  0  0  0  0  0  0  0  0  0  0
  1  3  1  0  0  0  0
  1  5  1  0  0  0  0
  2  6  1  0  0  0  0
  2  1  1  0  0  0  0
  2  8  1  0  0  0  0
  4  1  1  0  0  0  0
  6  9  1  0  0  0  0
  6 10  1  0  0  0  0
  7  2  1  0  0  0  0
  9 12  1  0  0  0  0
 11  6  1  0  0  0  0
 13  9  1  0  0  0  0
 14  9  1  0  0  0  0
M  END
$$$$
