butane_opt
 OpenBabel08242015413D

 14 13  0  0  0  0  0  0  0  0999 V2000
   -3.9608    0.2566    0.0369 C   0  0  0  0  0  0  0  0  0  0  0  0
   -2.6990   -0.6306   -0.0107 C   0  0  0  0  0  0  0  0  0  0  0  0
   -4.8091   -0.2484    0.2835 H   0  0  0  0  0  0  0  0  0  0  0  0
   -4.1251    1.1090   -0.9708 H   0  0  0  0  0  0  0  0  0  0  0  0
   -3.8606    0.8188    0.8690 H   0  0  0  0  0  0  0  0  0  0  0  0
   -1.3979    0.1859    0.0158 C   0  0  0  0  0  0  0  0  0  0  0  0
   -2.8181   -1.3266   -0.9046 H   0  0  0  0  0  0  0  0  0  0  0  0
   -2.6893   -1.2188    0.8432 H   0  0  0  0  0  0  0  0  0  0  0  0
   -0.1490   -0.6930    0.0548 C   0  0  0  0  0  0  0  0  0  0  0  0
   -1.4149    0.8340    0.8775 H   0  0  0  0  0  0  0  0  0  0  0  0
   -1.3191    0.8899   -0.9422 H   0  0  0  0  0  0  0  0  0  0  0  0
   -0.0937   -1.2948    0.9345 H   0  0  0  0  0  0  0  0  0  0  0  0
    0.7517   -0.0615    0.0918 H   0  0  0  0  0  0  0  0  0  0  0  0
   -0.1716   -1.3895   -0.8246 H   0  0  0  0  0  0  0  0  0  0  0  0
  1  3  1  0  0  0  0
  1  5  1  0  0  0  0
  2  6  1  0  0  0  0
  2  1  1  0  0  0  0
  2  8  1  0  0  0  0
  4  1  1  0  0  0  0
  6  9  1  0  0  0  0
  6 10  1  0  0  0  0
  7  2  1  0  0  0  0
  9 13  1  0  0  0  0
  9 12  1  0  0  0  0
 11  6  1  0  0  0  0
 14  9  1  0  0  0  0
M  END
$$$$
