butane_opt
 OpenBabel08242015413D

 14 13  0  0  0  0  0  0  0  0999 V2000
   -3.9290    0.2527    0.0315 C   0  0  0  0  0  0  0  0  0  0  0  0
   -2.7010   -0.6036    0.0193 C   0  0  0  0  0  0  0  0  0  0  0  0
   -4.8962   -0.4031    0.0157 H   0  0  0  0  0  0  0  0  0  0  0  0
   -3.9205    0.8546   -0.8483 H   0  0  0  0  0  0  0  0  0  0  0  0
   -3.9659    0.9790    0.9141 H   0  0  0  0  0  0  0  0  0  0  0  0
   -1.4163    0.1966    0.0003 C   0  0  0  0  0  0  0  0  0  0  0  0
   -2.7595   -1.2885   -0.8518 H   0  0  0  0  0  0  0  0  0  0  0  0
   -2.6742   -1.2015    0.8766 H   0  0  0  0  0  0  0  0  0  0  0  0
   -0.1539   -0.7076    0.0473 C   0  0  0  0  0  0  0  0  0  0  0  0
   -1.4265    0.9044    0.8617 H   0  0  0  0  0  0  0  0  0  0  0  0
   -1.4454    0.7930   -0.8569 H   0  0  0  0  0  0  0  0  0  0  0  0
   -0.1000   -1.4099    1.0151 H   0  0  0  0  0  0  0  0  0  0  0  0
    0.7429   -0.1005   -0.1271 H   0  0  0  0  0  0  0  0  0  0  0  0
   -0.1654   -1.2645   -0.7286 H   0  0  0  0  0  0  0  0  0  0  0  0
  1  5  1  0  0  0  0
  2  1  1  0  0  0  0
  2  8  1  0  0  0  0
  3  1  1  0  0  0  0
  4  1  1  0  0  0  0
  6  2  1  0  0  0  0
  6  9  1  0  0  0  0
  6 10  1  0  0  0  0
  7  2  1  0  0  0  0
  9 12  1  0  0  0  0
 11  6  1  0  0  0  0
 13  9  1  0  0  0  0
 14  9  1  0  0  0  0
M  END
$$$$
