14
butane_opt
C  -3.960770   0.256628   0.036862
C  -2.698952  -0.630627  -0.010713
H  -4.809091  -0.248361   0.283457
H  -4.125080   1.108991  -0.970769
H  -3.860552   0.818833   0.869042
C  -1.397911   0.185939   0.015765
H  -2.818134  -1.326551  -0.904645
H  -2.689281  -1.218776   0.843232
C  -0.148992  -0.693025   0.054802
H  -1.414894   0.833987   0.877455
H  -1.319146   0.889859  -0.942237
H  -0.093685  -1.294756   0.934523
H   0.751701  -0.061529   0.091809
H  -0.171595  -1.389508  -0.824562
