14
butane_opt
C  -3.980982   0.283897  -0.004517
C  -2.681473  -0.658166   0.062922
H  -4.837728  -0.319905   0.152990
H  -4.093723   1.116376  -1.016142
H  -3.997259   0.791910   0.741960
C  -1.397349   0.181469   0.048782
H  -2.655756  -1.412292  -0.816224
H  -2.685866  -1.196240   0.871415
C  -0.162882  -0.681714   0.009287
H  -1.216083   0.940137   0.941745
H  -1.390101   0.805338  -0.857188
H  -0.106085  -1.280321   0.884537
H   0.789110  -0.041965   0.012869
H  -0.161859  -1.372052  -0.885941
