14
butane_opt
C  -3.918986   0.243645   0.050751
C  -2.688301  -0.583644   0.001807
H  -4.935522  -0.442535  -0.089261
H  -3.928471   0.641490  -0.660383
H  -3.902060   1.118961   1.067009
C  -1.433777   0.190955  -0.050196
H  -2.739569  -1.203526  -0.810082
H  -2.737602  -1.188034   0.928417
C  -0.156329  -0.703185   0.073762
H  -1.437470   0.806879   0.738628
H  -1.433665   0.865664  -0.970067
H  -0.134740  -1.404925   0.994413
H   0.698879  -0.160389   0.074378
H  -0.088055  -1.304990  -0.712654
