14
butane_opt
C  -3.931432   0.262466   0.053169
C  -2.694826  -0.601846   0.010617
H  -4.939730  -0.417531   0.070544
H  -3.861483   0.804192  -0.827280
H  -3.949008   0.943636   0.945380
C  -1.415135   0.195821  -0.050067
H  -2.751835  -1.216389  -0.805203
H  -2.625604  -1.307853   0.948440
C  -0.174507  -0.695024   0.063563
H  -1.463821   0.809533   0.757012
H  -1.440775   0.838103  -0.887351
H  -0.198304  -1.216416   0.906271
H   0.769511  -0.116493   0.246905
H   0.024371  -1.534610  -0.850435
