butane_opt
 OpenBabel08242015413D

 14 13  0  0  0  0  0  0  0  0999 V2000
   -3.9810    0.2839   -0.0045 C   0  0  0  0  0  0  0  0  0  0  0  0
   -2.6815   -0.6582    0.0629 C   0  0  0  0  0  0  0  0  0  0  0  0
   -4.8377   -0.3199    0.1530 H   0  0  0  0  0  0  0  0  0  0  0  0
   -4.0937    1.1164   -1.0161 H   0  0  0  0  0  0  0  0  0  0  0  0
   -3.9973    0.7919    0.7420 H   0  0  0  0  0  0  0  0  0  0  0  0
   -1.3973    0.1815    0.0488 C   0  0  0  0  0  0  0  0  0  0  0  0
   -2.6558   -1.4123   -0.8162 H   0  0  0  0  0  0  0  0  0  0  0  0
   -2.6859   -1.1962    0.8714 H   0  0  0  0  0  0  0  0  0  0  0  0
   -0.1629   -0.6817    0.0093 C   0  0  0  0  0  0  0  0  0  0  0  0
   -1.2161    0.9401    0.9417 H   0  0  0  0  0  0  0  0  0  0  0  0
   -1.3901    0.8053   -0.8572 H   0  0  0  0  0  0  0  0  0  0  0  0
   -0.1061   -1.2803    0.8845 H   0  0  0  0  0  0  0  0  0  0  0  0
    0.7891   -0.0420    0.0129 H   0  0  0  0  0  0  0  0  0  0  0  0
   -0.1619   -1.3721   -0.8859 H   0  0  0  0  0  0  0  0  0  0  0  0
  1  2  1  0  0  0  0
  1  3  1  0  0  0  0
  1  5  1  0  0  0  0
  2  8  1  0  0  0  0
  4  1  1  0  0  0  0
  6  2  1  0  0  0  0
  6 10  1  0  0  0  0
  7  2  1  0  0  0  0
  9 13  1  0  0  0  0
  9  6  1  0  0  0  0
  9 12  1  0  0  0  0
 11  6  1  0  0  0  0
 14  9  1  0  0  0  0
M  END
$$$$
