14
butane_opt
C  -3.976500   0.278379  -0.032919
C  -2.682327  -0.647081   0.108990
H  -4.875273  -0.313071  -0.221369
H  -3.911792   0.907658  -0.918745
H  -4.115012   0.984263   0.852030
C  -1.386391   0.195424   0.063863
H  -2.741570  -1.293741  -0.720057
H  -2.704334  -1.361687   1.079486
C  -0.154787  -0.675742  -0.030082
H  -1.307844   0.884634   0.928290
H  -1.429414   0.759578  -0.809134
H  -0.126096  -1.304315   0.886895
H   0.762971  -0.141547  -0.034573
H  -0.174523  -1.401072  -0.932761
