14
butane_opt
C  -3.942645   0.254823   0.017162
C  -2.717978  -0.613057   0.032870
H  -4.848376  -0.306783  -0.043156
H  -4.009384   0.817304  -0.847705
H  -3.959770   1.003117   0.941651
C  -1.400516   0.204337   0.012682
H  -2.699408  -1.273195  -0.821280
H  -2.755261  -1.250676   0.940879
C  -0.142363  -0.702210   0.037538
H  -1.369290   0.851913   0.853328
H  -1.414762   0.798067  -0.854667
H  -0.094800  -1.419600   0.981927
H   0.747446  -0.115950  -0.099920
H  -0.170085  -1.303032  -0.799957
