butane_opt
 OpenBabel08242015413D

 14 13  0  0  0  0  0  0  0  0999 V2000
   -3.9135    0.2342   -0.0149 C   0  0  0  0  0  0  0  0  0  0  0  0
   -2.7079   -0.5949    0.0640 C   0  0  0  0  0  0  0  0  0  0  0  0
   -4.7667   -0.3803    0.1448 H   0  0  0  0  0  0  0  0  0  0  0  0
   -3.8945    0.9625   -0.9776 H   0  0  0  0  0  0  0  0  0  0  0  0
   -3.8828    0.8687    0.8121 H   0  0  0  0  0  0  0  0  0  0  0  0
   -1.4436    0.2096    0.0355 C   0  0  0  0  0  0  0  0  0  0  0  0
   -2.6479   -1.1366   -0.6743 H   0  0  0  0  0  0  0  0  0  0  0  0
   -2.8221   -1.2883    1.0140 H   0  0  0  0  0  0  0  0  0  0  0  0
   -0.1600   -0.7119    0.0037 C   0  0  0  0  0  0  0  0  0  0  0  0
   -1.3895    0.9095    0.9426 H   0  0  0  0  0  0  0  0  0  0  0  0
   -1.4483    0.8141   -0.8460 H   0  0  0  0  0  0  0  0  0  0  0  0
   -0.1507   -1.1934    0.7802 H   0  0  0  0  0  0  0  0  0  0  0  0
    0.7377   -0.1334    0.1614 H   0  0  0  0  0  0  0  0  0  0  0  0
   -0.0635   -1.5391   -0.9911 H   0  0  0  0  0  0  0  0  0  0  0  0
  1  2  1  0  0  0  0
  1  3  1  0  0  0  0
  1  5  1  0  0  0  0
  2  8  1  0  0  0  0
  4  1  1  0  0  0  0
  6  2  1  0  0  0  0
  6 10  1  0  0  0  0
  7  2  1  0  0  0  0
  9  6  1  0  0  0  0
  9 13  1  0  0  0  0
  9 12  1  0  0  0  0
 11  6  1  0  0  0  0
 14  9  1  0  0  0  0
M  END
$$$$
