14
butane_opt
C  -3.956690   0.251065   0.026479
C  -2.710354  -0.586946   0.011906
H  -4.856630  -0.340921   0.141602
H  -3.990920   0.919765  -0.915668
H  -3.996061   0.865652   0.851221
C  -1.394845   0.197754   0.017394
H  -2.837977  -1.356677  -0.920821
H  -2.758548  -1.224340   0.873797
C  -0.141838  -0.720264   0.057115
H  -1.362401   0.901046   0.896081
H  -1.413617   0.808600  -0.848894
H   0.020709  -1.388324   0.983599
H   0.801153  -0.088893  -0.177757
H  -0.183813  -1.253713  -0.788351
