14
butane_opt
C  -3.964582   0.281367  -0.040434
C  -2.702444  -0.632616   0.068976
H  -4.851220  -0.285073   0.074735
H  -3.979907   0.926717  -0.981415
H  -4.081787   0.841427   0.723369
C  -1.400634   0.177309   0.103818
H  -2.691705  -1.260625  -0.760417
H  -2.689783  -1.266123   0.986987
C  -0.146161  -0.687620  -0.018313
H  -1.326810   0.843973   0.986012
H  -1.361390   0.766014  -0.740543
H   0.020196  -1.326666   0.890046
H   0.843925  -0.066659  -0.255430
H  -0.341158  -1.292438  -0.856649
