butane_opt
 OpenBabel08242015413D

 14 13  0  0  0  0  0  0  0  0999 V2000
   -3.9214    0.2502    0.0560 C   0  0  0  0  0  0  0  0  0  0  0  0
   -2.6872   -0.5867   -0.0281 C   0  0  0  0  0  0  0  0  0  0  0  0
   -4.9236   -0.4329    0.2788 H   0  0  0  0  0  0  0  0  0  0  0  0
   -4.1062    0.9990   -0.8818 H   0  0  0  0  0  0  0  0  0  0  0  0
   -3.7423    0.7353    0.7867 H   0  0  0  0  0  0  0  0  0  0  0  0
   -1.4268    0.2039   -0.0080 C   0  0  0  0  0  0  0  0  0  0  0  0
   -2.8004   -1.3185   -0.8918 H   0  0  0  0  0  0  0  0  0  0  0  0
   -2.6789   -1.1824    0.8554 H   0  0  0  0  0  0  0  0  0  0  0  0
   -0.1648   -0.7127    0.0573 C   0  0  0  0  0  0  0  0  0  0  0  0
   -1.4471    0.9150    0.8738 H   0  0  0  0  0  0  0  0  0  0  0  0
   -1.4191    0.8119   -0.8840 H   0  0  0  0  0  0  0  0  0  0  0  0
   -0.2176   -1.4047    1.0344 H   0  0  0  0  0  0  0  0  0  0  0  0
    0.7702   -0.0976    0.1036 H   0  0  0  0  0  0  0  0  0  0  0  0
   -0.0517   -1.3588   -0.7850 H   0  0  0  0  0  0  0  0  0  0  0  0
  1  3  1  0  0  0  0
  1  5  1  0  0  0  0
  2  6  1  0  0  0  0
  2  1  1  0  0  0  0
  2  8  1  0  0  0  0
  4  1  1  0  0  0  0
  6  9  1  0  0  0  0
  6 10  1  0  0  0  0
  7  2  1  0  0  0  0
  9 13  1  0  0  0  0
  9 12  1  0  0  0  0
 11  6  1  0  0  0  0
 14  9  1  0  0  0  0
M  END
$$$$
