butane_opt
 OpenBabel08242015413D

 14 13  0  0  0  0  0  0  0  0999 V2000
   -3.9646    0.2814   -0.0404 C   0  0  0  0  0  0  0  0  0  0  0  0
   -2.7024   -0.6326    0.0690 C   0  0  0  0  0  0  0  0  0  0  0  0
   -4.8512   -0.2851    0.0747 H   0  0  0  0  0  0  0  0  0  0  0  0
   -3.9799    0.9267   -0.9814 H   0  0  0  0  0  0  0  0  0  0  0  0
   -4.0818    0.8414    0.7234 H   0  0  0  0  0  0  0  0  0  0  0  0
   -1.4006    0.1773    0.1038 C   0  0  0  0  0  0  0  0  0  0  0  0
   -2.6917   -1.2606   -0.7604 H   0  0  0  0  0  0  0  0  0  0  0  0
   -2.6898   -1.2661    0.9870 H   0  0  0  0  0  0  0  0  0  0  0  0
   -0.1462   -0.6876   -0.0183 C   0  0  0  0  0  0  0  0  0  0  0  0
   -1.3268    0.8440    0.9860 H   0  0  0  0  0  0  0  0  0  0  0  0
   -1.3614    0.7660   -0.7405 H   0  0  0  0  0  0  0  0  0  0  0  0
    0.0202   -1.3267    0.8900 H   0  0  0  0  0  0  0  0  0  0  0  0
    0.8439   -0.0667   -0.2554 H   0  0  0  0  0  0  0  0  0  0  0  0
   -0.3412   -1.2924   -0.8566 H   0  0  0  0  0  0  0  0  0  0  0  0
  1  2  1  0  0  0  0
  1  3  1  0  0  0  0
  1  5  1  0  0  0  0
  2  6  1  0  0  0  0
  2  8  1  0  0  0  0
  4  1  1  0  0  0  0
  6 10  1  0  0  0  0
  7  2  1  0  0  0  0
  9  6  1  0  0  0  0
  9 12  1  0  0  0  0
 11  6  1  0  0  0  0
 13  9  1  0  0  0  0
 14  9  1  0  0  0  0
M  END
$$$$
