butane_opt
 OpenBabel08242015413D

 14 13  0  0  0  0  0  0  0  0999 V2000
   -3.9684    0.2761    0.0014 C   0  0  0  0  0  0  0  0  0  0  0  0
   -2.7154   -0.6262    0.0532 C   0  0  0  0  0  0  0  0  0  0  0  0
   -4.8950   -0.3102    0.2692 H   0  0  0  0  0  0  0  0  0  0  0  0
   -4.0846    1.0940   -1.0730 H   0  0  0  0  0  0  0  0  0  0  0  0
   -3.9421    0.7082    0.6980 H   0  0  0  0  0  0  0  0  0  0  0  0
   -1.3838    0.1849    0.0521 C   0  0  0  0  0  0  0  0  0  0  0  0
   -2.6555   -1.3510   -0.8153 H   0  0  0  0  0  0  0  0  0  0  0  0
   -2.7180   -1.1765    0.8759 H   0  0  0  0  0  0  0  0  0  0  0  0
   -0.1501   -0.6990   -0.0050 C   0  0  0  0  0  0  0  0  0  0  0  0
   -1.3464    0.8584    0.9142 H   0  0  0  0  0  0  0  0  0  0  0  0
   -1.3473    0.8008   -0.7857 H   0  0  0  0  0  0  0  0  0  0  0  0
   -0.1218   -1.2776    0.8703 H   0  0  0  0  0  0  0  0  0  0  0  0
    0.8075   -0.0216    0.1441 H   0  0  0  0  0  0  0  0  0  0  0  0
   -0.1114   -1.4199   -0.8978 H   0  0  0  0  0  0  0  0  0  0  0  0
  1  2  1  0  0  0  0
  1  3  1  0  0  0  0
  1  5  1  0  0  0  0
  2  8  1  0  0  0  0
  4  1  1  0  0  0  0
  6  2  1  0  0  0  0
  6 10  1  0  0  0  0
  7  2  1  0  0  0  0
  9  6  1  0  0  0  0
  9 13  1  0  0  0  0
  9 12  1  0  0  0  0
 11  6  1  0  0  0  0
 14  9  1  0  0  0  0
M  END
$$$$
