butane_opt
 OpenBabel08242015413D

 14 13  0  0  0  0  0  0  0  0999 V2000
   -3.9454    0.2874    0.0582 C   0  0  0  0  0  0  0  0  0  0  0  0
   -2.6877   -0.6324    0.0273 C   0  0  0  0  0  0  0  0  0  0  0  0
   -4.8790   -0.3191   -0.1915 H   0  0  0  0  0  0  0  0  0  0  0  0
   -3.8116    0.7334   -0.7887 H   0  0  0  0  0  0  0  0  0  0  0  0
   -4.0837    1.1745    1.0629 H   0  0  0  0  0  0  0  0  0  0  0  0
   -1.3999    0.1484   -0.0452 C   0  0  0  0  0  0  0  0  0  0  0  0
   -2.7868   -1.3105   -0.8641 H   0  0  0  0  0  0  0  0  0  0  0  0
   -2.6533   -1.2333    0.9170 H   0  0  0  0  0  0  0  0  0  0  0  0
   -0.1790   -0.6715    0.0655 C   0  0  0  0  0  0  0  0  0  0  0  0
   -1.3284    0.7522    0.7806 H   0  0  0  0  0  0  0  0  0  0  0  0
   -1.3747    0.8381   -0.9798 H   0  0  0  0  0  0  0  0  0  0  0  0
   -0.2142   -1.3397    0.9771 H   0  0  0  0  0  0  0  0  0  0  0  0
    0.7826   -0.0565    0.0298 H   0  0  0  0  0  0  0  0  0  0  0  0
   -0.1393   -1.2891   -0.7462 H   0  0  0  0  0  0  0  0  0  0  0  0
  1  5  1  0  0  0  0
  2  1  1  0  0  0  0
  2  8  1  0  0  0  0
  3  1  1  0  0  0  0
  4  1  1  0  0  0  0
  6  2  1  0  0  0  0
  6  9  1  0  0  0  0
  6 10  1  0  0  0  0
  7  2  1  0  0  0  0
  9 12  1  0  0  0  0
 11  6  1  0  0  0  0
 13  9  1  0  0  0  0
 14  9  1  0  0  0  0
M  END
$$$$
