butane_opt
 OpenBabel08242015413D

 14 13  0  0  0  0  0  0  0  0999 V2000
   -3.9677    0.2672    0.0468 C   0  0  0  0  0  0  0  0  0  0  0  0
   -2.6997   -0.6302   -0.0075 C   0  0  0  0  0  0  0  0  0  0  0  0
   -4.8042   -0.2491    0.0132 H   0  0  0  0  0  0  0  0  0  0  0  0
   -4.0342    0.7544   -0.7508 H   0  0  0  0  0  0  0  0  0  0  0  0
   -3.9578    1.0908    0.9988 H   0  0  0  0  0  0  0  0  0  0  0  0
   -1.3889    0.1855   -0.0157 C   0  0  0  0  0  0  0  0  0  0  0  0
   -2.7153   -1.3262   -0.8775 H   0  0  0  0  0  0  0  0  0  0  0  0
   -2.6964   -1.2500    0.8231 H   0  0  0  0  0  0  0  0  0  0  0  0
   -0.1649   -0.6869    0.0698 C   0  0  0  0  0  0  0  0  0  0  0  0
   -1.3291    0.8282    0.8300 H   0  0  0  0  0  0  0  0  0  0  0  0
   -1.2797    0.8633   -0.9538 H   0  0  0  0  0  0  0  0  0  0  0  0
   -0.0664   -1.4716    1.0453 H   0  0  0  0  0  0  0  0  0  0  0  0
    0.7253   -0.1323   -0.1179 H   0  0  0  0  0  0  0  0  0  0  0  0
   -0.2123   -1.1961   -0.6548 H   0  0  0  0  0  0  0  0  0  0  0  0
  1  5  1  0  0  0  0
  2  1  1  0  0  0  0
  2  8  1  0  0  0  0
  3  1  1  0  0  0  0
  4  1  1  0  0  0  0
  6  2  1  0  0  0  0
  6  9  1  0  0  0  0
  6 10  1  0  0  0  0
  7  2  1  0  0  0  0
  9 12  1  0  0  0  0
 11  6  1  0  0  0  0
 13  9  1  0  0  0  0
 14  9  1  0  0  0  0
M  END
$$$$
