14
butane_opt
C  -3.949394   0.284780   0.074077
C  -2.668028  -0.656559  -0.014095
H  -4.873824  -0.282973   0.137323
H  -4.066796   0.847200  -0.797324
H  -3.886826   0.966474   0.985790
C  -1.399184   0.173660  -0.078790
H  -2.742449  -1.302550  -0.859972
H  -2.612756  -1.186025   0.851485
C  -0.182786  -0.674695   0.086962
H  -1.347923   0.835918   0.772075
H  -1.412137   0.838302  -0.993870
H  -0.333023  -1.254847   1.017973
H   0.711184  -0.063526   0.300568
H  -0.067303  -1.410042  -0.788306
