butane_opt
 OpenBabel08242015413D

 14 13  0  0  0  0  0  0  0  0999 V2000
   -3.9494    0.2848    0.0741 C   0  0  0  0  0  0  0  0  0  0  0  0
   -2.6680   -0.6566   -0.0141 C   0  0  0  0  0  0  0  0  0  0  0  0
   -4.8738   -0.2830    0.1373 H   0  0  0  0  0  0  0  0  0  0  0  0
   -4.0668    0.8472   -0.7973 H   0  0  0  0  0  0  0  0  0  0  0  0
   -3.8868    0.9665    0.9858 H   0  0  0  0  0  0  0  0  0  0  0  0
   -1.3992    0.1737   -0.0788 C   0  0  0  0  0  0  0  0  0  0  0  0
   -2.7424   -1.3026   -0.8600 H   0  0  0  0  0  0  0  0  0  0  0  0
   -2.6128   -1.1860    0.8515 H   0  0  0  0  0  0  0  0  0  0  0  0
   -0.1828   -0.6747    0.0870 C   0  0  0  0  0  0  0  0  0  0  0  0
   -1.3479    0.8359    0.7721 H   0  0  0  0  0  0  0  0  0  0  0  0
   -1.4121    0.8383   -0.9939 H   0  0  0  0  0  0  0  0  0  0  0  0
   -0.3330   -1.2548    1.0180 H   0  0  0  0  0  0  0  0  0  0  0  0
    0.7112   -0.0635    0.3006 H   0  0  0  0  0  0  0  0  0  0  0  0
   -0.0673   -1.4100   -0.7883 H   0  0  0  0  0  0  0  0  0  0  0  0
  1  3  1  0  0  0  0
  1  5  1  0  0  0  0
  2  1  1  0  0  0  0
  2  8  1  0  0  0  0
  4  1  1  0  0  0  0
  6  2  1  0  0  0  0
  6  9  1  0  0  0  0
  6 10  1  0  0  0  0
  7  2  1  0  0  0  0
  9 13  1  0  0  0  0
  9 12  1  0  0  0  0
 11  6  1  0  0  0  0
 14  9  1  0  0  0  0
M  END
$$$$
