14
butane_opt
C  -3.968375   0.276083   0.001410
C  -2.715368  -0.626167   0.053154
H  -4.895045  -0.310239   0.269181
H  -4.084562   1.094023  -1.073044
H  -3.942083   0.708161   0.697980
C  -1.383776   0.184910   0.052089
H  -2.655511  -1.350994  -0.815346
H  -2.718045  -1.176484   0.875882
C  -0.150128  -0.698953  -0.004997
H  -1.346406   0.858363   0.914233
H  -1.347261   0.800806  -0.785652
H  -0.121826  -1.277603   0.870307
H   0.807538  -0.021607   0.144124
H  -0.111424  -1.419949  -0.897847
