14
butane_opt
C  -3.947173   0.285098   0.009049
C  -2.697343  -0.648165   0.049323
H  -4.863444  -0.329820   0.126559
H  -4.069133   0.937425  -0.900877
H  -3.962034   0.893769   0.887715
C  -1.405703   0.189613  -0.010407
H  -2.628784  -1.278828  -0.789862
H  -2.741966  -1.350336   1.002719
C  -0.159772  -0.686236   0.030007
H  -1.343811   0.887559   0.886994
H  -1.321929   0.802205  -0.883858
H  -0.173088  -1.137830   0.821338
H   0.720733  -0.113976   0.238053
H  -0.111059  -1.469697  -0.895285
