14
butane_opt
C  -3.978201   0.290981   0.065339
C  -2.697780  -0.637190  -0.016055
H  -4.883109  -0.286127   0.042888
H  -4.050962   0.795693  -0.778241
H  -3.951424   1.073721   0.992455
C  -1.371940   0.146616  -0.053146
H  -2.806467  -1.285691  -0.819836
H  -2.630254  -1.309634   0.915829
C  -0.158935  -0.676537   0.087172
H  -1.433765   0.814128   0.780611
H  -1.307805   0.839526  -0.993376
H  -0.209932  -1.210730   0.979089
H   0.760077  -0.052835   0.103974
H  -0.042227  -1.335022  -0.790992
