butane_opt
 OpenBabel08242015413D

 14 13  0  0  0  0  0  0  0  0999 V2000
   -3.9339    0.2544   -0.0489 C   0  0  0  0  0  0  0  0  0  0  0  0
   -2.6826   -0.6085    0.1295 C   0  0  0  0  0  0  0  0  0  0  0  0
   -4.9062   -0.3623   -0.1281 H   0  0  0  0  0  0  0  0  0  0  0  0
   -3.7924    0.8556   -0.9443 H   0  0  0  0  0  0  0  0  0  0  0  0
   -4.0051    0.9754    0.8242 H   0  0  0  0  0  0  0  0  0  0  0  0
   -1.4076    0.2083    0.0673 C   0  0  0  0  0  0  0  0  0  0  0  0
   -2.7326   -1.3010   -0.7112 H   0  0  0  0  0  0  0  0  0  0  0  0
   -2.7274   -1.2333    0.9979 H   0  0  0  0  0  0  0  0  0  0  0  0
   -0.1783   -0.7037   -0.0292 C   0  0  0  0  0  0  0  0  0  0  0  0
   -1.3073    0.8816    0.9024 H   0  0  0  0  0  0  0  0  0  0  0  0
   -1.4850    0.7775   -0.7922 H   0  0  0  0  0  0  0  0  0  0  0  0
   -0.1475   -1.2984    0.8537 H   0  0  0  0  0  0  0  0  0  0  0  0
    0.7004   -0.1261   -0.0898 H   0  0  0  0  0  0  0  0  0  0  0  0
   -0.1840   -1.4538   -0.9015 H   0  0  0  0  0  0  0  0  0  0  0  0
  1  2  1  0  0  0  0
  1  5  1  0  0  0  0
  2  8  1  0  0  0  0
  3  1  1  0  0  0  0
  4  1  1  0  0  0  0
  6  2  1  0  0  0  0
  6 10  1  0  0  0  0
  7  2  1  0  0  0  0
  9  6  1  0  0  0  0
  9 12  1  0  0  0  0
 11  6  1  0  0  0  0
 13  9  1  0  0  0  0
 14  9  1  0  0  0  0
M  END
$$$$
