butane_opt
 OpenBabel08242015413D

 14 13  0  0  0  0  0  0  0  0999 V2000
   -3.9549    0.2639   -0.0209 C   0  0  0  0  0  0  0  0  0  0  0  0
   -2.7189   -0.6251    0.0582 C   0  0  0  0  0  0  0  0  0  0  0  0
   -4.8120   -0.2872    0.2652 H   0  0  0  0  0  0  0  0  0  0  0  0
   -4.0739    1.1566   -1.0993 H   0  0  0  0  0  0  0  0  0  0  0  0
   -3.8154    0.7083    0.6428 H   0  0  0  0  0  0  0  0  0  0  0  0
   -1.4089    0.1835    0.0672 C   0  0  0  0  0  0  0  0  0  0  0  0
   -2.6747   -1.2647   -0.7598 H   0  0  0  0  0  0  0  0  0  0  0  0
   -2.6999   -1.2889    1.0208 H   0  0  0  0  0  0  0  0  0  0  0  0
   -0.1431   -0.6882   -0.0085 C   0  0  0  0  0  0  0  0  0  0  0  0
   -1.4517    1.0009    1.0189 H   0  0  0  0  0  0  0  0  0  0  0  0
   -1.3653    0.6927   -0.7593 H   0  0  0  0  0  0  0  0  0  0  0  0
   -0.0918   -1.2407    0.8306 H   0  0  0  0  0  0  0  0  0  0  0  0
    0.8412   -0.0507    0.0401 H   0  0  0  0  0  0  0  0  0  0  0  0
   -0.1873   -1.4892   -0.9614 H   0  0  0  0  0  0  0  0  0  0  0  0
  1  2  1  0  0  0  0
  1  3  1  0  0  0  0
  1  5  1  0  0  0  0
  2  6  1  0  0  0  0
  2  8  1  0  0  0  0
  4  1  1  0  0  0  0
  6 10  1  0  0  0  0
  7  2  1  0  0  0  0
  9 13  1  0  0  0  0
  9  6  1  0  0  0  0
  9 12  1  0  0  0  0
 11  6  1  0  0  0  0
 14  9  1  0  0  0  0
M  END
$$$$
