14
butane_opt
C  -3.923446   0.249466   0.044062
C  -2.710094  -0.603477   0.009477
H  -4.801961  -0.354866  -0.046990
H  -3.892598   0.735414  -0.788408
H  -3.951856   1.058936   1.031075
C  -1.409441   0.207691  -0.024826
H  -2.690255  -1.258403  -0.834085
H  -2.704580  -1.187307   0.845740
C  -0.168641  -0.715469   0.068141
H  -1.489344   0.874305   0.851163
H  -1.373560   0.820914  -0.931538
H  -0.093750  -1.497655   1.042649
H   0.787524  -0.065024  -0.119485
H  -0.271992  -1.249157  -0.739179
