14
butane_opt
C  -3.926288   0.268026  -0.029231
C  -2.665066  -0.621758   0.091835
H  -4.839263  -0.269452  -0.127759
H  -3.878419   0.928644  -0.967029
H  -4.127352   0.930872   0.818468
C  -1.416230   0.168604   0.071807
H  -2.731553  -1.358391  -0.755423
H  -2.716393  -1.271204   0.985668
C  -0.183032  -0.672124  -0.010800
H  -1.294225   0.883374   0.966961
H  -1.488182   0.732379  -0.762713
H  -0.090856  -1.365838   0.946149
H   0.736965  -0.056541  -0.269824
H  -0.309555  -1.327828  -0.880985
