butane_opt
 OpenBabel08242015413D

 14 13  0  0  0  0  0  0  0  0999 V2000
   -3.9638    0.2858    0.0130 C   0  0  0  0  0  0  0  0  0  0  0  0
   -2.7032   -0.6405    0.0342 C   0  0  0  0  0  0  0  0  0  0  0  0
   -4.8113   -0.2591   -0.1001 H   0  0  0  0  0  0  0  0  0  0  0  0
   -3.9098    0.7085   -0.7394 H   0  0  0  0  0  0  0  0  0  0  0  0
   -4.0218    1.1654    0.9985 H   0  0  0  0  0  0  0  0  0  0  0  0
   -1.3759    0.1532    0.0013 C   0  0  0  0  0  0  0  0  0  0  0  0
   -2.7169   -1.2765   -0.7711 H   0  0  0  0  0  0  0  0  0  0  0  0
   -2.7112   -1.3063    0.9891 H   0  0  0  0  0  0  0  0  0  0  0  0
   -0.1631   -0.6806    0.0346 C   0  0  0  0  0  0  0  0  0  0  0  0
   -1.3935    0.8794    0.8574 H   0  0  0  0  0  0  0  0  0  0  0  0
   -1.4010    0.8821   -0.9331 H   0  0  0  0  0  0  0  0  0  0  0  0
   -0.1978   -1.3579    0.9764 H   0  0  0  0  0  0  0  0  0  0  0  0
    0.8213   -0.0499   -0.0732 H   0  0  0  0  0  0  0  0  0  0  0  0
   -0.2218   -1.2672   -0.7350 H   0  0  0  0  0  0  0  0  0  0  0  0
  1  2  1  0  0  0  0
  1  5  1  0  0  0  0
  2  8  1  0  0  0  0
  3  1  1  0  0  0  0
  4  1  1  0  0  0  0
  6  2  1  0  0  0  0
  6  9  1  0  0  0  0
  6 10  1  0  0  0  0
  7  2  1  0  0  0  0
  9 12  1  0  0  0  0
 11  6  1  0  0  0  0
 13  9  1  0  0  0  0
 14  9  1  0  0  0  0
M  END
$$$$
