butane_opt
 OpenBabel08242015413D

 14 13  0  0  0  0  0  0  0  0999 V2000
   -3.9558    0.2538   -0.0296 C   0  0  0  0  0  0  0  0  0  0  0  0
   -2.7028   -0.6020    0.0841 C   0  0  0  0  0  0  0  0  0  0  0  0
   -4.9261   -0.4031    0.1740 H   0  0  0  0  0  0  0  0  0  0  0  0
   -4.0090    1.1102   -1.0766 H   0  0  0  0  0  0  0  0  0  0  0  0
   -3.8591    0.6543    0.6841 H   0  0  0  0  0  0  0  0  0  0  0  0
   -1.4042    0.2051    0.0769 C   0  0  0  0  0  0  0  0  0  0  0  0
   -2.6940   -1.2991   -0.7625 H   0  0  0  0  0  0  0  0  0  0  0  0
   -2.7943   -1.1285    0.9323 H   0  0  0  0  0  0  0  0  0  0  0  0
   -0.1384   -0.7150   -0.0185 C   0  0  0  0  0  0  0  0  0  0  0  0
   -1.3040    0.9645    0.9540 H   0  0  0  0  0  0  0  0  0  0  0  0
   -1.4386    0.8053   -0.7656 H   0  0  0  0  0  0  0  0  0  0  0  0
   -0.1299   -1.2619    0.8796 H   0  0  0  0  0  0  0  0  0  0  0  0
    0.7471   -0.1530    0.0115 H   0  0  0  0  0  0  0  0  0  0  0  0
   -0.1833   -1.4847   -0.9805 H   0  0  0  0  0  0  0  0  0  0  0  0
  1  2  1  0  0  0  0
  1  3  1  0  0  0  0
  1  5  1  0  0  0  0
  2  8  1  0  0  0  0
  4  1  1  0  0  0  0
  6  2  1  0  0  0  0
  6 10  1  0  0  0  0
  7  2  1  0  0  0  0
  9 13  1  0  0  0  0
  9  6  1  0  0  0  0
  9 12  1  0  0  0  0
 11  6  1  0  0  0  0
 14  9  1  0  0  0  0
M  END
$$$$
