butane_opt
 OpenBabel08242015413D

 14 13  0  0  0  0  0  0  0  0999 V2000
   -3.9370    0.2732   -0.0404 C   0  0  0  0  0  0  0  0  0  0  0  0
   -2.6866   -0.6407    0.0950 C   0  0  0  0  0  0  0  0  0  0  0  0
   -4.7524   -0.2664   -0.0543 H   0  0  0  0  0  0  0  0  0  0  0  0
   -3.8618    0.9335   -0.9747 H   0  0  0  0  0  0  0  0  0  0  0  0
   -4.0754    0.9159    0.8055 H   0  0  0  0  0  0  0  0  0  0  0  0
   -1.4106    0.1725    0.0864 C   0  0  0  0  0  0  0  0  0  0  0  0
   -2.5591   -1.3346   -0.7311 H   0  0  0  0  0  0  0  0  0  0  0  0
   -2.7456   -1.2670    0.9964 H   0  0  0  0  0  0  0  0  0  0  0  0
   -0.1786   -0.6820   -0.0352 C   0  0  0  0  0  0  0  0  0  0  0  0
   -1.3059    0.9940    1.0648 H   0  0  0  0  0  0  0  0  0  0  0  0
   -1.5168    0.7501   -0.8078 H   0  0  0  0  0  0  0  0  0  0  0  0
   -0.1097   -1.3971    0.9033 H   0  0  0  0  0  0  0  0  0  0  0  0
    0.7602   -0.0356   -0.2038 H   0  0  0  0  0  0  0  0  0  0  0  0
   -0.3136   -1.2221   -0.8057 H   0  0  0  0  0  0  0  0  0  0  0  0
  1  2  1  0  0  0  0
  1  5  1  0  0  0  0
  2  8  1  0  0  0  0
  3  1  1  0  0  0  0
  4  1  1  0  0  0  0
  6  2  1  0  0  0  0
  6 10  1  0  0  0  0
  7  2  1  0  0  0  0
  9  6  1  0  0  0  0
  9 12  1  0  0  0  0
 11  6  1  0  0  0  0
 13  9  1  0  0  0  0
 14  9  1  0  0  0  0
M  END
$$$$
