butane_opt
 OpenBabel08242015413D

 14 13  0  0  0  0  0  0  0  0999 V2000
   -3.9619    0.2886    0.0717 C   0  0  0  0  0  0  0  0  0  0  0  0
   -2.6822   -0.6300   -0.0369 C   0  0  0  0  0  0  0  0  0  0  0  0
   -4.8389   -0.3021    0.2203 H   0  0  0  0  0  0  0  0  0  0  0  0
   -4.0777    0.9394   -0.8336 H   0  0  0  0  0  0  0  0  0  0  0  0
   -3.8791    0.8724    0.8479 H   0  0  0  0  0  0  0  0  0  0  0  0
   -1.4003    0.1440   -0.0282 C   0  0  0  0  0  0  0  0  0  0  0  0
   -2.7929   -1.3139   -0.9330 H   0  0  0  0  0  0  0  0  0  0  0  0
   -2.5991   -1.2699    0.8157 H   0  0  0  0  0  0  0  0  0  0  0  0
   -0.1722   -0.6673    0.0749 C   0  0  0  0  0  0  0  0  0  0  0  0
   -1.4514    0.8678    0.8343 H   0  0  0  0  0  0  0  0  0  0  0  0
   -1.3380    0.7424   -0.8812 H   0  0  0  0  0  0  0  0  0  0  0  0
   -0.1369   -1.3821    1.0446 H   0  0  0  0  0  0  0  0  0  0  0  0
    0.7605   -0.0117    0.0603 H   0  0  0  0  0  0  0  0  0  0  0  0
   -0.0976   -1.2210   -0.7121 H   0  0  0  0  0  0  0  0  0  0  0  0
  1  3  1  0  0  0  0
  1  5  1  0  0  0  0
  2  6  1  0  0  0  0
  2  1  1  0  0  0  0
  2  8  1  0  0  0  0
  4  1  1  0  0  0  0
  6  9  1  0  0  0  0
  6 10  1  0  0  0  0
  7  2  1  0  0  0  0
  9 12  1  0  0  0  0
 11  6  1  0  0  0  0
 13  9  1  0  0  0  0
 14  9  1  0  0  0  0
M  END
$$$$
