butane_opt
 OpenBabel08242015413D

 14 13  0  0  0  0  0  0  0  0999 V2000
   -3.9538    0.2728    0.0759 C   0  0  0  0  0  0  0  0  0  0  0  0
   -2.6870   -0.6484   -0.0201 C   0  0  0  0  0  0  0  0  0  0  0  0
   -4.8348   -0.2691    0.1570 H   0  0  0  0  0  0  0  0  0  0  0  0
   -4.0522    0.9441   -0.8551 H   0  0  0  0  0  0  0  0  0  0  0  0
   -4.0220    0.9882    0.9655 H   0  0  0  0  0  0  0  0  0  0  0  0
   -1.3919    0.1804   -0.0586 C   0  0  0  0  0  0  0  0  0  0  0  0
   -2.8260   -1.3671   -0.8983 H   0  0  0  0  0  0  0  0  0  0  0  0
   -2.5934   -1.2642    0.8571 H   0  0  0  0  0  0  0  0  0  0  0  0
   -0.1701   -0.6844    0.0821 C   0  0  0  0  0  0  0  0  0  0  0  0
   -1.4619    0.8466    0.7837 H   0  0  0  0  0  0  0  0  0  0  0  0
   -1.3403    0.8837   -0.9455 H   0  0  0  0  0  0  0  0  0  0  0  0
   -0.2439   -1.2472    0.9516 H   0  0  0  0  0  0  0  0  0  0  0  0
    0.8022   -0.0471    0.1847 H   0  0  0  0  0  0  0  0  0  0  0  0
   -0.0195   -1.3727   -0.7264 H   0  0  0  0  0  0  0  0  0  0  0  0
  1  3  1  0  0  0  0
  1  5  1  0  0  0  0
  2  1  1  0  0  0  0
  2  8  1  0  0  0  0
  4  1  1  0  0  0  0
  6  2  1  0  0  0  0
  6  9  1  0  0  0  0
  6 10  1  0  0  0  0
  7  2  1  0  0  0  0
  9 13  1  0  0  0  0
  9 12  1  0  0  0  0
 11  6  1  0  0  0  0
 14  9  1  0  0  0  0
M  END
$$$$
