14
butane_opt
C  -3.935639   0.257688   0.068565
C  -2.723394  -0.617952  -0.005741
H  -4.814883  -0.319799  -0.035945
H  -3.973991   0.693012  -0.758852
H  -3.974785   1.036882   1.002230
C  -1.407161   0.210711  -0.047096
H  -2.803038  -1.292909  -0.872945
H  -2.800132  -1.132059   0.808239
C  -0.133105  -0.706164   0.069759
H  -1.396832   0.929048   0.823015
H  -1.395021   0.783245  -0.954163
H  -0.083644  -1.535323   1.130747
H   0.712911  -0.191977  -0.043682
H  -0.103193  -1.176843  -0.637948
