14
butane_opt
C  -3.941059   0.248085   0.003934
C  -2.718511  -0.581783   0.081762
H  -4.882017  -0.386755  -0.207284
H  -3.846691   0.730866  -0.812736
H  -4.133117   0.997576   0.895071
C  -1.399611   0.212968   0.015673
H  -2.760767  -1.296943  -0.781023
H  -2.807248  -1.221810   0.971857
C  -0.132376  -0.725805   0.014537
H  -1.396113   0.872924   0.830272
H  -1.424448   0.780615  -0.842356
H  -0.066940  -1.322404   0.959089
H   0.749986  -0.143195  -0.131724
H  -0.140491  -1.334612  -0.820947
