14
butane_opt
C  -3.936984   0.273238  -0.040425
C  -2.686641  -0.640680   0.094994
H  -4.752442  -0.266399  -0.054281
H  -3.861831   0.933484  -0.974748
H  -4.075361   0.915860   0.805465
C  -1.410620   0.172522   0.086422
H  -2.559137  -1.334574  -0.731138
H  -2.745557  -1.267019   0.996369
C  -0.178588  -0.682030  -0.035212
H  -1.305910   0.993992   1.064842
H  -1.516757   0.750132  -0.807775
H  -0.109683  -1.397125   0.903251
H   0.760202  -0.035574  -0.203849
H  -0.313620  -1.222061  -0.805717
