14
butane_opt
C  -3.941334   0.261503   0.040897
C  -2.701642  -0.600374   0.007148
H  -4.893146  -0.380908   0.066776
H  -4.011083   0.809827  -0.799923
H  -3.889538   0.930023   0.930219
C  -1.410101   0.195409  -0.012299
H  -2.682173  -1.366897  -0.892041
H  -2.694575  -1.188410   0.873527
C  -0.160066  -0.703976   0.064725
H  -1.420599   0.827161   0.827891
H  -1.369257   0.868441  -0.948348
H  -0.128245  -1.386937   0.996097
H   0.760291  -0.105531  -0.051577
H  -0.133322  -1.309026  -0.760889
