14
butane_opt
C  -3.911086   0.268195  -0.007379
C  -2.701908  -0.592797   0.059001
H  -4.865207  -0.368272   0.180974
H  -4.005948   0.996459  -1.020802
H  -3.901115   0.711744   0.737178
C  -1.409545   0.178121   0.045693
H  -2.742826  -1.316362  -0.824663
H  -2.773729  -1.177707   0.971854
C  -0.169819  -0.698672   0.007767
H  -1.350783   0.852009   0.900029
H  -1.505924   0.740105  -0.791687
H  -0.180393  -1.197051   0.849021
H   0.744557  -0.114522   0.013929
H  -0.128676  -1.450042  -0.864932
