14
butane_opt
C  -3.944545   0.251880   0.047572
C  -2.723581  -0.614766   0.032596
H  -4.821872  -0.309856  -0.167864
H  -3.907188   0.687093  -0.736427
H  -4.037713   1.147355   1.052354
C  -1.397266   0.196047  -0.049545
H  -2.745311  -1.315474  -0.784333
H  -2.778050  -1.159697   0.864186
C  -0.134627  -0.694558   0.059181
H  -1.395636   0.893007   0.819204
H  -1.465244   0.838287  -0.962846
H  -0.125995  -1.495037   1.025476
H   0.741341  -0.152429   0.021379
H  -0.092336  -1.269792  -0.723583
