14
butane_opt
C  -3.932795   0.267731   0.031149
C  -2.683029  -0.632990   0.005395
H  -4.832604  -0.295777   0.065251
H  -3.951942   0.901419  -0.852948
H  -3.945436   0.987455   0.908197
C  -1.426487   0.166884   0.011861
H  -2.726053  -1.348893  -0.919787
H  -2.624189  -1.187655   0.858508
C  -0.186895  -0.674820   0.060080
H  -1.334778   0.885293   0.908760
H  -1.354019   0.826746  -0.895450
H  -0.006229  -1.496584   1.042717
H   0.743486  -0.059251  -0.212622
H  -0.253756  -1.202856  -0.743074
