14
butane_opt
C  -3.949551   0.258195  -0.011001
C  -2.710019  -0.604836   0.060464
H  -4.889195  -0.346802   0.105794
H  -3.984969   0.884156  -0.931036
H  -3.929852   0.856318   0.804947
C  -1.411043   0.197770   0.038797
H  -2.662283  -1.234816  -0.775234
H  -2.766402  -1.257368   0.973336
C  -0.140589  -0.701560   0.006132
H  -1.350733   0.891163   0.909195
H  -1.394579   0.773419  -0.811800
H  -0.088115  -1.297629   0.892422
H   0.724632  -0.135179   0.025517
H  -0.140770  -1.409007  -0.886475
