14
butane_opt
C  -3.904521   0.242571   0.069041
C  -2.717936  -0.577970  -0.013731
H  -4.837064  -0.354266  -0.066968
H  -3.895994   0.721220  -0.757857
H  -3.950269   1.017462   1.004522
C  -1.429766   0.206445  -0.018137
H  -2.719909  -1.392949  -0.938783
H  -2.754560  -1.103777   0.821960
C  -0.152063  -0.716305   0.079101
H  -1.426816   0.756548   0.759134
H  -1.386285   0.841810  -0.959499
H  -0.124358  -1.527993   1.112778
H   0.704301  -0.129977  -0.225010
H  -0.170202  -1.156486  -0.671541
