butane_opt
 OpenBabel08242015413D

 14 13  0  0  0  0  0  0  0  0999 V2000
   -3.9045    0.2426    0.0690 C   0  0  0  0  0  0  0  0  0  0  0  0
   -2.7179   -0.5780   -0.0137 C   0  0  0  0  0  0  0  0  0  0  0  0
   -4.8371   -0.3543   -0.0670 H   0  0  0  0  0  0  0  0  0  0  0  0
   -3.8960    0.7212   -0.7579 H   0  0  0  0  0  0  0  0  0  0  0  0
   -3.9503    1.0175    1.0045 H   0  0  0  0  0  0  0  0  0  0  0  0
   -1.4298    0.2064   -0.0181 C   0  0  0  0  0  0  0  0  0  0  0  0
   -2.7199   -1.3929   -0.9388 H   0  0  0  0  0  0  0  0  0  0  0  0
   -2.7546   -1.1038    0.8220 H   0  0  0  0  0  0  0  0  0  0  0  0
   -0.1521   -0.7163    0.0791 C   0  0  0  0  0  0  0  0  0  0  0  0
   -1.4268    0.7565    0.7591 H   0  0  0  0  0  0  0  0  0  0  0  0
   -1.3863    0.8418   -0.9595 H   0  0  0  0  0  0  0  0  0  0  0  0
   -0.1244   -1.5280    1.1128 H   0  0  0  0  0  0  0  0  0  0  0  0
    0.7043   -0.1300   -0.2250 H   0  0  0  0  0  0  0  0  0  0  0  0
   -0.1702   -1.1565   -0.6715 H   0  0  0  0  0  0  0  0  0  0  0  0
  1  5  1  0  0  0  0
  2  1  1  0  0  0  0
  2  8  1  0  0  0  0
  3  1  1  0  0  0  0
  4  1  1  0  0  0  0
  6  2  1  0  0  0  0
  6  9  1  0  0  0  0
  6 10  1  0  0  0  0
  7  2  1  0  0  0  0
  9 12  1  0  0  0  0
 11  6  1  0  0  0  0
 13  9  1  0  0  0  0
 14  9  1  0  0  0  0
M  END
$$$$
