14
butane_opt
C  -3.930456   0.242040  -0.012089
C  -2.696510  -0.607014   0.091246
H  -4.821964  -0.307156   0.003505
H  -3.946163   0.942949  -0.962607
H  -3.900141   0.855415   0.811883
C  -1.410673   0.206773   0.023838
H  -2.661171  -1.286322  -0.732556
H  -2.788886  -1.257170   1.050417
C  -0.166482  -0.705537   0.004621
H  -1.434188   0.878588   0.892857
H  -1.485170   0.913554  -0.918201
H  -0.170016  -1.091952   0.767365
H   0.731795  -0.148898   0.208918
H  -0.097507  -1.613694  -1.005475
