butane_opt
 OpenBabel08242015413D

 14 13  0  0  0  0  0  0  0  0999 V2000
   -3.9396    0.2696    0.0456 C   0  0  0  0  0  0  0  0  0  0  0  0
   -2.6980   -0.6213    0.0102 C   0  0  0  0  0  0  0  0  0  0  0  0
   -4.8501   -0.2869    0.0134 H   0  0  0  0  0  0  0  0  0  0  0  0
   -4.0032    0.8958   -0.8407 H   0  0  0  0  0  0  0  0  0  0  0  0
   -3.9681    0.9520    0.9331 H   0  0  0  0  0  0  0  0  0  0  0  0
   -1.3956    0.1727   -0.0108 C   0  0  0  0  0  0  0  0  0  0  0  0
   -2.7201   -1.3842   -0.8901 H   0  0  0  0  0  0  0  0  0  0  0  0
   -2.6686   -1.2025    0.8416 H   0  0  0  0  0  0  0  0  0  0  0  0
   -0.1715   -0.6861    0.0587 C   0  0  0  0  0  0  0  0  0  0  0  0
   -1.3887    0.8789    0.8530 H   0  0  0  0  0  0  0  0  0  0  0  0
   -1.3317    0.7951   -0.9124 H   0  0  0  0  0  0  0  0  0  0  0  0
   -0.1348   -1.3954    1.0273 H   0  0  0  0  0  0  0  0  0  0  0  0
    0.7166   -0.1182   -0.1026 H   0  0  0  0  0  0  0  0  0  0  0  0
   -0.2128   -1.2231   -0.7205 H   0  0  0  0  0  0  0  0  0  0  0  0
  1  5  1  0  0  0  0
  2  1  1  0  0  0  0
  2  8  1  0  0  0  0
  3  1  1  0  0  0  0
  4  1  1  0  0  0  0
  6  2  1  0  0  0  0
  6  9  1  0  0  0  0
  6 10  1  0  0  0  0
  7  2  1  0  0  0  0
  9 12  1  0  0  0  0
 11  6  1  0  0  0  0
 13  9  1  0  0  0  0
 14  9  1  0  0  0  0
M  END
$$$$
