butane_opt
 OpenBabel08242015413D

 14 13  0  0  0  0  0  0  0  0999 V2000
   -3.9615    0.2694   -0.0247 C   0  0  0  0  0  0  0  0  0  0  0  0
   -2.7094   -0.6226    0.0594 C   0  0  0  0  0  0  0  0  0  0  0  0
   -4.8459   -0.2983    0.3362 H   0  0  0  0  0  0  0  0  0  0  0  0
   -4.0934    1.1553   -1.1292 H   0  0  0  0  0  0  0  0  0  0  0  0
   -3.9839    0.7343    0.6602 H   0  0  0  0  0  0  0  0  0  0  0  0
   -1.3889    0.1618    0.0767 C   0  0  0  0  0  0  0  0  0  0  0  0
   -2.6183   -1.2920   -0.7582 H   0  0  0  0  0  0  0  0  0  0  0  0
   -2.7582   -1.2415    0.9633 H   0  0  0  0  0  0  0  0  0  0  0  0
   -0.1476   -0.6818   -0.0011 C   0  0  0  0  0  0  0  0  0  0  0  0
   -1.3434    0.9288    0.9649 H   0  0  0  0  0  0  0  0  0  0  0  0
   -1.3649    0.7790   -0.7745 H   0  0  0  0  0  0  0  0  0  0  0  0
   -0.0866   -1.1740    0.8147 H   0  0  0  0  0  0  0  0  0  0  0  0
    0.8223   -0.0814    0.0135 H   0  0  0  0  0  0  0  0  0  0  0  0
   -0.2572   -1.5007   -1.0020 H   0  0  0  0  0  0  0  0  0  0  0  0
  1  2  1  0  0  0  0
  1  3  1  0  0  0  0
  1  5  1  0  0  0  0
  2  6  1  0  0  0  0
  2  8  1  0  0  0  0
  4  1  1  0  0  0  0
  6 10  1  0  0  0  0
  7  2  1  0  0  0  0
  9 13  1  0  0  0  0
  9  6  1  0  0  0  0
  9 12  1  0  0  0  0
 11  6  1  0  0  0  0
 14  9  1  0  0  0  0
M  END
$$$$
