butane_opt
 OpenBabel08242015413D

 14 13  0  0  0  0  0  0  0  0999 V2000
   -3.9626    0.2725   -0.0039 C   0  0  0  0  0  0  0  0  0  0  0  0
   -2.7074   -0.6429    0.0685 C   0  0  0  0  0  0  0  0  0  0  0  0
   -4.7839   -0.2730    0.0391 H   0  0  0  0  0  0  0  0  0  0  0  0
   -3.9892    0.9719   -0.9548 H   0  0  0  0  0  0  0  0  0  0  0  0
   -3.9877    0.9540    0.8464 H   0  0  0  0  0  0  0  0  0  0  0  0
   -1.3947    0.1993    0.0236 C   0  0  0  0  0  0  0  0  0  0  0  0
   -2.7285   -1.3093   -0.7744 H   0  0  0  0  0  0  0  0  0  0  0  0
   -2.7806   -1.3222    1.0240 H   0  0  0  0  0  0  0  0  0  0  0  0
   -0.1499   -0.6968   -0.0007 C   0  0  0  0  0  0  0  0  0  0  0  0
   -1.3364    0.9010    0.8970 H   0  0  0  0  0  0  0  0  0  0  0  0
   -1.3515    0.7645   -0.7848 H   0  0  0  0  0  0  0  0  0  0  0  0
   -0.2440   -1.2454    0.8854 H   0  0  0  0  0  0  0  0  0  0  0  0
    0.7926   -0.0508    0.0672 H   0  0  0  0  0  0  0  0  0  0  0  0
   -0.0444   -1.4340   -0.8764 H   0  0  0  0  0  0  0  0  0  0  0  0
  1  3  1  0  0  0  0
  1  2  1  0  0  0  0
  1  5  1  0  0  0  0
  2  8  1  0  0  0  0
  4  1  1  0  0  0  0
  6  2  1  0  0  0  0
  6 10  1  0  0  0  0
  7  2  1  0  0  0  0
  9  6  1  0  0  0  0
  9 13  1  0  0  0  0
  9 12  1  0  0  0  0
 11  6  1  0  0  0  0
 14  9  1  0  0  0  0
M  END
$$$$
