14
butane_opt
C  -3.955346   0.258896   0.018259
C  -2.694082  -0.600541   0.049491
H  -4.887010  -0.377937   0.045330
H  -3.985845   0.912806  -0.903288
H  -3.896017   0.826176   0.851565
C  -1.412757   0.182583  -0.001371
H  -2.725129  -1.237989  -0.788323
H  -2.776322  -1.261260   0.983739
C  -0.151683  -0.699409   0.035243
H  -1.435429   0.854749   0.889166
H  -1.362764   0.903522  -0.947328
H  -0.098193  -1.130400   0.823940
H   0.737913  -0.128510   0.184915
H  -0.035599  -1.540961  -0.950995
