14
butane_opt
C  -3.933935   0.245738  -0.015538
C  -2.687059  -0.583439   0.069421
H  -4.860349  -0.381347   0.004789
H  -3.886341   0.783256  -0.904111
H  -3.982466   0.911129   0.874511
C  -1.417119   0.188315   0.034253
H  -2.703120  -1.137700  -0.675956
H  -2.802187  -1.248162   1.031158
C  -0.164849  -0.712394   0.005709
H  -1.360959   0.863848   0.860943
H  -1.511667   0.861616  -0.865225
H  -0.136524  -1.183421   0.805852
H   0.765420  -0.112967   0.091460
H  -0.103357  -1.497248  -0.909177
