14
butane_opt
C  -3.910495   0.245011  -0.034716
C  -2.707072  -0.573276   0.087204
H  -4.890831  -0.400243   0.072472
H  -3.907224   1.014020  -1.041454
H  -4.018612   0.764647   0.723364
C  -1.405540   0.196382   0.092872
H  -2.690165  -1.355711  -0.779252
H  -2.796043  -1.198229   0.992818
C  -0.169965  -0.714976  -0.033966
H  -1.363258   0.916505   0.980110
H  -1.500658   0.775531  -0.745089
H  -0.054845  -1.368660   0.915381
H   0.728588  -0.109883  -0.110711
H  -0.199944  -1.350298  -0.910969
