14
butane_opt
C  -3.919594   0.240724   0.051787
C  -2.698779  -0.598767   0.001352
H  -4.832044  -0.382966   0.168213
H  -3.987956   0.886674  -0.882311
H  -3.921173   0.963842   0.957981
C  -1.437744   0.206289  -0.021820
H  -2.736462  -1.314673  -0.843278
H  -2.746963  -1.232589   0.867401
C  -0.144599  -0.702829   0.067021
H  -1.370505   0.781670   0.730401
H  -1.419584   0.966869  -1.030985
H  -0.214816  -1.216454   0.915610
H   0.693702  -0.159100   0.222933
H  -0.062364  -1.518717  -0.839256
