butane_opt
 OpenBabel08242015413D

 14 13  0  0  0  0  0  0  0  0999 V2000
   -3.9491    0.2768    0.0514 C   0  0  0  0  0  0  0  0  0  0  0  0
   -2.6851   -0.6161    0.0289 C   0  0  0  0  0  0  0  0  0  0  0  0
   -4.8404   -0.2734   -0.1945 H   0  0  0  0  0  0  0  0  0  0  0  0
   -3.9062    0.6946   -0.7545 H   0  0  0  0  0  0  0  0  0  0  0  0
   -4.0750    1.0995    1.0159 H   0  0  0  0  0  0  0  0  0  0  0  0
   -1.4005    0.1417   -0.0334 C   0  0  0  0  0  0  0  0  0  0  0  0
   -2.6356   -1.3739   -0.8761 H   0  0  0  0  0  0  0  0  0  0  0  0
   -2.6038   -1.1986    0.9240 H   0  0  0  0  0  0  0  0  0  0  0  0
   -0.1774   -0.6649    0.0724 C   0  0  0  0  0  0  0  0  0  0  0  0
   -1.4114    0.8023    0.8089 H   0  0  0  0  0  0  0  0  0  0  0  0
   -1.3248    0.8577   -1.0026 H   0  0  0  0  0  0  0  0  0  0  0  0
   -0.2119   -1.3860    1.0071 H   0  0  0  0  0  0  0  0  0  0  0  0
    0.7846   -0.0597   -0.1212 H   0  0  0  0  0  0  0  0  0  0  0  0
   -0.2518   -1.2828   -0.7810 H   0  0  0  0  0  0  0  0  0  0  0  0
  1  5  1  0  0  0  0
  2  1  1  0  0  0  0
  2  8  1  0  0  0  0
  3  1  1  0  0  0  0
  4  1  1  0  0  0  0
  6  2  1  0  0  0  0
  6  9  1  0  0  0  0
  6 10  1  0  0  0  0
  7  2  1  0  0  0  0
  9 12  1  0  0  0  0
 11  6  1  0  0  0  0
 13  9  1  0  0  0  0
 14  9  1  0  0  0  0
M  END
$$$$
