butane_opt
 OpenBabel08242015413D

 14 13  0  0  0  0  0  0  0  0999 V2000
   -3.9534    0.2669   -0.0092 C   0  0  0  0  0  0  0  0  0  0  0  0
   -2.6989   -0.6344    0.0547 C   0  0  0  0  0  0  0  0  0  0  0  0
   -4.8246   -0.2911    0.0067 H   0  0  0  0  0  0  0  0  0  0  0  0
   -3.9789    0.9357   -0.9276 H   0  0  0  0  0  0  0  0  0  0  0  0
   -4.0158    0.9643    0.8585 H   0  0  0  0  0  0  0  0  0  0  0  0
   -1.4025    0.1789    0.0595 C   0  0  0  0  0  0  0  0  0  0  0  0
   -2.6776   -1.2943   -0.7975 H   0  0  0  0  0  0  0  0  0  0  0  0
   -2.7725   -1.2516    0.9331 H   0  0  0  0  0  0  0  0  0  0  0  0
   -0.1503   -0.6839    0.0046 C   0  0  0  0  0  0  0  0  0  0  0  0
   -1.3841    0.8560    0.8958 H   0  0  0  0  0  0  0  0  0  0  0  0
   -1.4053    0.8068   -0.8031 H   0  0  0  0  0  0  0  0  0  0  0  0
   -0.0445   -1.3495    0.9511 H   0  0  0  0  0  0  0  0  0  0  0  0
    0.7459   -0.0893   -0.1753 H   0  0  0  0  0  0  0  0  0  0  0  0
   -0.2096   -1.2835   -0.8129 H   0  0  0  0  0  0  0  0  0  0  0  0
  1  3  1  0  0  0  0
  1  2  1  0  0  0  0
  1  5  1  0  0  0  0
  2  6  1  0  0  0  0
  2  8  1  0  0  0  0
  4  1  1  0  0  0  0
  6 10  1  0  0  0  0
  7  2  1  0  0  0  0
  9  6  1  0  0  0  0
  9 12  1  0  0  0  0
 11  6  1  0  0  0  0
 13  9  1  0  0  0  0
 14  9  1  0  0  0  0
M  END
$$$$
