14
butane_opt
C  -3.964450   0.281201  -0.020163
C  -2.696637  -0.631733   0.068174
H  -4.892441  -0.293074  -0.082184
H  -3.965553   0.842620  -0.879653
H  -4.094923   0.967366   0.825033
C  -1.394536   0.159710   0.071579
H  -2.723298  -1.276729  -0.768075
H  -2.674595  -1.338207   1.018595
C  -0.153738  -0.670345   0.002086
H  -1.355659   0.866864   0.887697
H  -1.370272   0.825870  -0.851572
H  -0.009427  -1.299816   0.887817
H   0.747002  -0.128352  -0.173079
H  -0.176969  -1.309109  -0.887410
