butane_opt
 OpenBabel08242015413D

 14 13  0  0  0  0  0  0  0  0999 V2000
   -3.9577    0.2848   -0.0124 C   0  0  0  0  0  0  0  0  0  0  0  0
   -2.7014   -0.6604    0.0858 C   0  0  0  0  0  0  0  0  0  0  0  0
   -4.8704   -0.2956   -0.1669 H   0  0  0  0  0  0  0  0  0  0  0  0
   -3.9117    0.7667   -0.8596 H   0  0  0  0  0  0  0  0  0  0  0  0
   -4.1860    1.1381    0.9518 H   0  0  0  0  0  0  0  0  0  0  0  0
   -1.3828    0.1926    0.0304 C   0  0  0  0  0  0  0  0  0  0  0  0
   -2.6870   -1.2443   -0.7098 H   0  0  0  0  0  0  0  0  0  0  0  0
   -2.6840   -1.3300    0.9920 H   0  0  0  0  0  0  0  0  0  0  0  0
   -0.1586   -0.6872   -0.0096 C   0  0  0  0  0  0  0  0  0  0  0  0
   -1.2982    0.8744    0.8808 H   0  0  0  0  0  0  0  0  0  0  0  0
   -1.3899    0.7457   -0.8515 H   0  0  0  0  0  0  0  0  0  0  0  0
   -0.1733   -1.3445    0.9355 H   0  0  0  0  0  0  0  0  0  0  0  0
    0.7261   -0.0681   -0.0097 H   0  0  0  0  0  0  0  0  0  0  0  0
   -0.1336   -1.2781   -0.8261 H   0  0  0  0  0  0  0  0  0  0  0  0
  1  2  1  0  0  0  0
  1  5  1  0  0  0  0
  2  8  1  0  0  0  0
  3  1  1  0  0  0  0
  4  1  1  0  0  0  0
  6  2  1  0  0  0  0
  6 10  1  0  0  0  0
  7  2  1  0  0  0  0
  9  6  1  0  0  0  0
  9 12  1  0  0  0  0
 11  6  1  0  0  0  0
 13  9  1  0  0  0  0
 14  9  1  0  0  0  0
M  END
$$$$
