14
butane_opt
C  -3.968370   0.281181  -0.005045
C  -2.691133  -0.640769   0.053832
H  -4.856904  -0.289010   0.150822
H  -4.110406   1.064129  -0.974056
H  -3.927360   0.843887   0.780612
C  -1.385646   0.171160   0.031454
H  -2.777260  -1.346157  -0.845765
H  -2.705402  -1.279520   0.973387
C  -0.152966  -0.665218   0.010573
H  -1.312010   0.911688   0.954818
H  -1.377968   0.701133  -0.778176
H  -0.192985  -1.319072   0.912319
H   0.717987  -0.142196   0.029964
H  -0.104620  -1.366352  -0.879841
