14
butane_opt
C  -3.948151   0.240378   0.056590
C  -2.688771  -0.574019  -0.007979
H  -4.919434  -0.371871  -0.008458
H  -3.903251   0.645371  -0.718112
H  -3.923299   1.055842   0.988792
C  -1.417754   0.190069  -0.032456
H  -2.771791  -1.341431  -0.944091
H  -2.709580  -1.144892   0.855640
C  -0.161637  -0.709273   0.077223
H  -1.345749   0.902843   0.791757
H  -1.472795   0.862505  -0.940664
H  -0.049755  -1.536427   1.145354
H   0.753967  -0.145582  -0.155250
H  -0.085038  -1.176357  -0.644974
