butane_opt
 OpenBabel08242015413D

 14 13  0  0  0  0  0  0  0  0999 V2000
   -3.9317    0.2414   -0.0513 C   0  0  0  0  0  0  0  0  0  0  0  0
   -2.7090   -0.5802    0.0940 C   0  0  0  0  0  0  0  0  0  0  0  0
   -4.8460   -0.3473    0.0648 H   0  0  0  0  0  0  0  0  0  0  0  0
   -3.8293    0.8985   -1.0288 H   0  0  0  0  0  0  0  0  0  0  0  0
   -3.9268    0.8361    0.7444 H   0  0  0  0  0  0  0  0  0  0  0  0
   -1.4208    0.2111    0.1044 C   0  0  0  0  0  0  0  0  0  0  0  0
   -2.6966   -1.2809   -0.8028 H   0  0  0  0  0  0  0  0  0  0  0  0
   -2.8208   -1.1986    1.0008 H   0  0  0  0  0  0  0  0  0  0  0  0
   -0.1553   -0.7234   -0.0247 C   0  0  0  0  0  0  0  0  0  0  0  0
   -1.2668    0.9586    1.0065 H   0  0  0  0  0  0  0  0  0  0  0  0
   -1.5292    0.7788   -0.7743 H   0  0  0  0  0  0  0  0  0  0  0  0
   -0.0091   -1.4362    0.9160 H   0  0  0  0  0  0  0  0  0  0  0  0
    0.8332   -0.0977   -0.2586 H   0  0  0  0  0  0  0  0  0  0  0  0
   -0.3295   -1.3605   -0.8779 H   0  0  0  0  0  0  0  0  0  0  0  0
  1  3  1  0  0  0  0
  1  2  1  0  0  0  0
  1  5  1  0  0  0  0
  2  6  1  0  0  0  0
  2  8  1  0  0  0  0
  4  1  1  0  0  0  0
  6 10  1  0  0  0  0
  7  2  1  0  0  0  0
  9  6  1  0  0  0  0
  9 12  1  0  0  0  0
 11  6  1  0  0  0  0
 13  9  1  0  0  0  0
 14  9  1  0  0  0  0
M  END
$$$$
