butane_opt
 OpenBabel08242015413D

 14 13  0  0  0  0  0  0  0  0999 V2000
   -3.9482    0.2404    0.0566 C   0  0  0  0  0  0  0  0  0  0  0  0
   -2.6888   -0.5740   -0.0080 C   0  0  0  0  0  0  0  0  0  0  0  0
   -4.9194   -0.3719   -0.0085 H   0  0  0  0  0  0  0  0  0  0  0  0
   -3.9033    0.6454   -0.7181 H   0  0  0  0  0  0  0  0  0  0  0  0
   -3.9233    1.0558    0.9888 H   0  0  0  0  0  0  0  0  0  0  0  0
   -1.4178    0.1901   -0.0325 C   0  0  0  0  0  0  0  0  0  0  0  0
   -2.7718   -1.3414   -0.9441 H   0  0  0  0  0  0  0  0  0  0  0  0
   -2.7096   -1.1449    0.8556 H   0  0  0  0  0  0  0  0  0  0  0  0
   -0.1616   -0.7093    0.0772 C   0  0  0  0  0  0  0  0  0  0  0  0
   -1.3457    0.9028    0.7918 H   0  0  0  0  0  0  0  0  0  0  0  0
   -1.4728    0.8625   -0.9407 H   0  0  0  0  0  0  0  0  0  0  0  0
   -0.0498   -1.5364    1.1454 H   0  0  0  0  0  0  0  0  0  0  0  0
    0.7540   -0.1456   -0.1552 H   0  0  0  0  0  0  0  0  0  0  0  0
   -0.0850   -1.1764   -0.6450 H   0  0  0  0  0  0  0  0  0  0  0  0
  1  5  1  0  0  0  0
  2  1  1  0  0  0  0
  2  8  1  0  0  0  0
  3  1  1  0  0  0  0
  4  1  1  0  0  0  0
  6  2  1  0  0  0  0
  6  9  1  0  0  0  0
  6 10  1  0  0  0  0
  7  2  1  0  0  0  0
  9 12  1  0  0  0  0
 11  6  1  0  0  0  0
 13  9  1  0  0  0  0
 14  9  1  0  0  0  0
M  END
$$$$
