butane_opt
 OpenBabel08242015413D

 14 13  0  0  0  0  0  0  0  0999 V2000
   -3.9478    0.2452   -0.0272 C   0  0  0  0  0  0  0  0  0  0  0  0
   -2.7072   -0.6056    0.1022 C   0  0  0  0  0  0  0  0  0  0  0  0
   -4.8943   -0.4019   -0.2724 H   0  0  0  0  0  0  0  0  0  0  0  0
   -3.8921    0.7603   -0.8571 H   0  0  0  0  0  0  0  0  0  0  0  0
   -4.1202    1.0898    0.9064 H   0  0  0  0  0  0  0  0  0  0  0  0
   -1.4004    0.2191    0.0421 C   0  0  0  0  0  0  0  0  0  0  0  0
   -2.7434   -1.1564   -0.6103 H   0  0  0  0  0  0  0  0  0  0  0  0
   -2.7564   -1.3089    1.0495 H   0  0  0  0  0  0  0  0  0  0  0  0
   -0.1510   -0.7160   -0.0263 C   0  0  0  0  0  0  0  0  0  0  0  0
   -1.2690    0.8893    0.9204 H   0  0  0  0  0  0  0  0  0  0  0  0
   -1.4016    0.8064   -0.7984 H   0  0  0  0  0  0  0  0  0  0  0  0
   -0.0586   -1.3197    0.8994 H   0  0  0  0  0  0  0  0  0  0  0  0
    0.6811   -0.1774   -0.0071 H   0  0  0  0  0  0  0  0  0  0  0  0
   -0.0708   -1.3903   -0.8769 H   0  0  0  0  0  0  0  0  0  0  0  0
  1  2  1  0  0  0  0
  1  5  1  0  0  0  0
  2  8  1  0  0  0  0
  3  1  1  0  0  0  0
  4  1  1  0  0  0  0
  6  2  1  0  0  0  0
  6 10  1  0  0  0  0
  7  2  1  0  0  0  0
  9 13  1  0  0  0  0
  9  6  1  0  0  0  0
  9 12  1  0  0  0  0
 11  6  1  0  0  0  0
 14  9  1  0  0  0  0
M  END
$$$$
