butane_opt
 OpenBabel08242015413D

 14 13  0  0  0  0  0  0  0  0999 V2000
   -3.9684    0.2812   -0.0050 C   0  0  0  0  0  0  0  0  0  0  0  0
   -2.6911   -0.6408    0.0538 C   0  0  0  0  0  0  0  0  0  0  0  0
   -4.8569   -0.2890    0.1508 H   0  0  0  0  0  0  0  0  0  0  0  0
   -4.1104    1.0641   -0.9741 H   0  0  0  0  0  0  0  0  0  0  0  0
   -3.9274    0.8439    0.7806 H   0  0  0  0  0  0  0  0  0  0  0  0
   -1.3856    0.1712    0.0315 C   0  0  0  0  0  0  0  0  0  0  0  0
   -2.7773   -1.3462   -0.8458 H   0  0  0  0  0  0  0  0  0  0  0  0
   -2.7054   -1.2795    0.9734 H   0  0  0  0  0  0  0  0  0  0  0  0
   -0.1530   -0.6652    0.0106 C   0  0  0  0  0  0  0  0  0  0  0  0
   -1.3120    0.9117    0.9548 H   0  0  0  0  0  0  0  0  0  0  0  0
   -1.3780    0.7011   -0.7782 H   0  0  0  0  0  0  0  0  0  0  0  0
   -0.1930   -1.3191    0.9123 H   0  0  0  0  0  0  0  0  0  0  0  0
    0.7180   -0.1422    0.0300 H   0  0  0  0  0  0  0  0  0  0  0  0
   -0.1046   -1.3664   -0.8798 H   0  0  0  0  0  0  0  0  0  0  0  0
  1  2  1  0  0  0  0
  1  3  1  0  0  0  0
  1  5  1  0  0  0  0
  2  8  1  0  0  0  0
  4  1  1  0  0  0  0
  6  2  1  0  0  0  0
  6 10  1  0  0  0  0
  7  2  1  0  0  0  0
  9 13  1  0  0  0  0
  9  6  1  0  0  0  0
  9 12  1  0  0  0  0
 11  6  1  0  0  0  0
 14  9  1  0  0  0  0
M  END
$$$$
