14
butane_opt
C  -3.932826   0.282609  -0.016015
C  -2.668215  -0.637904   0.057231
H  -4.891662  -0.294934   0.015335
H  -3.913271   0.810659  -0.900033
H  -4.021371   0.923770   0.806172
C  -1.413538   0.182022   0.074183
H  -2.635496  -1.332213  -0.808192
H  -2.740283  -1.253216   0.926818
C  -0.187750  -0.677928   0.000136
H  -1.420555   0.855483   0.927262
H  -1.347115   0.805619  -0.786399
H  -0.027708  -1.449138   0.973118
H   0.723314  -0.093148  -0.282377
H  -0.325439  -1.227819  -0.800535
