14
butane_opt
C  -3.940935   0.256405  -0.004107
C  -2.697206  -0.617024   0.027704
H  -4.853966  -0.394764   0.308138
H  -4.137572   1.105838  -1.013290
H  -3.871590   0.734165   0.717244
C  -1.419750   0.209890   0.055006
H  -2.717149  -1.253834  -0.797078
H  -2.834340  -1.305955   0.981080
C  -0.141805  -0.697088   0.007621
H  -1.413117   0.949073   0.964930
H  -1.408057   0.745875  -0.811996
H  -0.109768  -1.253350   0.899941
H   0.745455  -0.129220   0.021961
H  -0.028555  -1.489790  -0.901705
