butane_opt
 OpenBabel08242015413D

 14 13  0  0  0  0  0  0  0  0999 V2000
   -3.9779    0.2782   -0.0107 C   0  0  0  0  0  0  0  0  0  0  0  0
   -2.6766   -0.6408    0.0680 C   0  0  0  0  0  0  0  0  0  0  0  0
   -4.8696   -0.2863    0.1668 H   0  0  0  0  0  0  0  0  0  0  0  0
   -4.0255    1.0691   -1.0252 H   0  0  0  0  0  0  0  0  0  0  0  0
   -4.0733    0.8301    0.7925 H   0  0  0  0  0  0  0  0  0  0  0  0
   -1.3832    0.1677    0.0344 C   0  0  0  0  0  0  0  0  0  0  0  0
   -2.6873   -1.2838   -0.7811 H   0  0  0  0  0  0  0  0  0  0  0  0
   -2.8003   -1.3057    1.0270 H   0  0  0  0  0  0  0  0  0  0  0  0
   -0.1657   -0.6751   -0.0050 C   0  0  0  0  0  0  0  0  0  0  0  0
   -1.3129    0.9224    0.9881 H   0  0  0  0  0  0  0  0  0  0  0  0
   -1.3866    0.7370   -0.7959 H   0  0  0  0  0  0  0  0  0  0  0  0
   -0.1845   -1.1914    0.7999 H   0  0  0  0  0  0  0  0  0  0  0  0
    0.7754   -0.0783    0.1207 H   0  0  0  0  0  0  0  0  0  0  0  0
   -0.0218   -1.4341   -0.9134 H   0  0  0  0  0  0  0  0  0  0  0  0
  1  2  1  0  0  0  0
  1  3  1  0  0  0  0
  1  5  1  0  0  0  0
  2  8  1  0  0  0  0
  4  1  1  0  0  0  0
  6  2  1  0  0  0  0
  6 10  1  0  0  0  0
  7  2  1  0  0  0  0
  9  6  1  0  0  0  0
  9 13  1  0  0  0  0
  9 12  1  0  0  0  0
 11  6  1  0  0  0  0
 14  9  1  0  0  0  0
M  END
$$$$
