butane_opt
 OpenBabel08242015413D

 14 13  0  0  0  0  0  0  0  0999 V2000
   -3.9322    0.2846   -0.0085 C   0  0  0  0  0  0  0  0  0  0  0  0
   -2.6947   -0.6341    0.0694 C   0  0  0  0  0  0  0  0  0  0  0  0
   -4.8417   -0.2989   -0.0901 H   0  0  0  0  0  0  0  0  0  0  0  0
   -3.9541    0.9110   -0.9386 H   0  0  0  0  0  0  0  0  0  0  0  0
   -4.1132    0.9509    0.8450 H   0  0  0  0  0  0  0  0  0  0  0  0
   -1.4087    0.1440    0.0624 C   0  0  0  0  0  0  0  0  0  0  0  0
   -2.6297   -1.3160   -0.7800 H   0  0  0  0  0  0  0  0  0  0  0  0
   -2.7005   -1.2283    0.9423 H   0  0  0  0  0  0  0  0  0  0  0  0
   -0.1638   -0.6689   -0.0035 C   0  0  0  0  0  0  0  0  0  0  0  0
   -1.3108    0.8335    0.8969 H   0  0  0  0  0  0  0  0  0  0  0  0
   -1.4949    0.7662   -0.8111 H   0  0  0  0  0  0  0  0  0  0  0  0
   -0.1463   -1.2959    0.9099 H   0  0  0  0  0  0  0  0  0  0  0  0
    0.7994   -0.0582   -0.1879 H   0  0  0  0  0  0  0  0  0  0  0  0
   -0.2357   -1.2350   -0.7760 H   0  0  0  0  0  0  0  0  0  0  0  0
  1  2  1  0  0  0  0
  1  5  1  0  0  0  0
  2  8  1  0  0  0  0
  3  1  1  0  0  0  0
  4  1  1  0  0  0  0
  6  2  1  0  0  0  0
  6 10  1  0  0  0  0
  7  2  1  0  0  0  0
  9  6  1  0  0  0  0
  9 12  1  0  0  0  0
 11  6  1  0  0  0  0
 13  9  1  0  0  0  0
 14  9  1  0  0  0  0
M  END
$$$$
