14
butane_opt
C  -3.977906   0.278151  -0.010748
C  -2.676610  -0.640758   0.067968
H  -4.869649  -0.286292   0.166848
H  -4.025454   1.069127  -1.025239
H  -4.073323   0.830060   0.792507
C  -1.383228   0.167740   0.034449
H  -2.687275  -1.283752  -0.781074
H  -2.800320  -1.305694   1.026996
C  -0.165694  -0.675143  -0.004989
H  -1.312925   0.922388   0.988129
H  -1.386574   0.736978  -0.795930
H  -0.184535  -1.191378   0.799940
H   0.775426  -0.078348   0.120651
H  -0.021847  -1.434131  -0.913445
