14
butane_opt
C  -3.964928   0.278828   0.054661
C  -2.705293  -0.630058  -0.002568
H  -4.897172  -0.280728  -0.079139
H  -3.973326   0.732713  -0.703213
H  -4.015200   1.078763   1.036843
C  -1.383729   0.180315  -0.021357
H  -2.707407  -1.383824  -0.903518
H  -2.593086  -1.218969   0.859393
C  -0.160647  -0.682546   0.065895
H  -1.354538   0.746579   0.770709
H  -1.317894   0.889982  -1.024478
H  -0.141485  -1.491485   1.098438
H   0.758982  -0.062690  -0.016122
H  -0.208308  -1.241222  -0.724379
