butane_opt
 OpenBabel08242015413D

 14 13  0  0  0  0  0  0  0  0999 V2000
   -3.9649    0.2788    0.0547 C   0  0  0  0  0  0  0  0  0  0  0  0
   -2.7053   -0.6301   -0.0026 C   0  0  0  0  0  0  0  0  0  0  0  0
   -4.8972   -0.2807   -0.0791 H   0  0  0  0  0  0  0  0  0  0  0  0
   -3.9733    0.7327   -0.7032 H   0  0  0  0  0  0  0  0  0  0  0  0
   -4.0152    1.0788    1.0368 H   0  0  0  0  0  0  0  0  0  0  0  0
   -1.3837    0.1803   -0.0214 C   0  0  0  0  0  0  0  0  0  0  0  0
   -2.7074   -1.3838   -0.9035 H   0  0  0  0  0  0  0  0  0  0  0  0
   -2.5931   -1.2190    0.8594 H   0  0  0  0  0  0  0  0  0  0  0  0
   -0.1606   -0.6825    0.0659 C   0  0  0  0  0  0  0  0  0  0  0  0
   -1.3545    0.7466    0.7707 H   0  0  0  0  0  0  0  0  0  0  0  0
   -1.3179    0.8900   -1.0245 H   0  0  0  0  0  0  0  0  0  0  0  0
   -0.1415   -1.4915    1.0984 H   0  0  0  0  0  0  0  0  0  0  0  0
    0.7590   -0.0627   -0.0161 H   0  0  0  0  0  0  0  0  0  0  0  0
   -0.2083   -1.2412   -0.7244 H   0  0  0  0  0  0  0  0  0  0  0  0
  1  5  1  0  0  0  0
  2  1  1  0  0  0  0
  2  8  1  0  0  0  0
  3  1  1  0  0  0  0
  4  1  1  0  0  0  0
  6  2  1  0  0  0  0
  6  9  1  0  0  0  0
  6 10  1  0  0  0  0
  7  2  1  0  0  0  0
  9 12  1  0  0  0  0
 11  6  1  0  0  0  0
 13  9  1  0  0  0  0
 14  9  1  0  0  0  0
M  END
$$$$
