14
butane_opt
C  -3.932233   0.284629  -0.008532
C  -2.694703  -0.634068   0.069383
H  -4.841673  -0.298880  -0.090053
H  -3.954133   0.911013  -0.938600
H  -4.113250   0.950896   0.845042
C  -1.408739   0.144010   0.062418
H  -2.629688  -1.316016  -0.779983
H  -2.700530  -1.228310   0.942284
C  -0.163802  -0.668887  -0.003485
H  -1.310790   0.833472   0.896912
H  -1.494895   0.766209  -0.811110
H  -0.146261  -1.295926   0.909861
H   0.799426  -0.058231  -0.187895
H  -0.235707  -1.234957  -0.775953
