14
butane_opt
C  -3.961183   0.288672  -0.020544
C  -2.674593  -0.628714   0.093858
H  -4.888000  -0.303584   0.044607
H  -3.974985   0.950925  -0.939221
H  -3.998351   0.872507   0.814764
C  -1.391595   0.144200   0.023055
H  -2.671145  -1.226321  -0.648716
H  -2.733655  -1.301197   1.015506
C  -0.188277  -0.674537  -0.020740
H  -1.311796   0.884081   0.928571
H  -1.366857   0.727973  -0.840445
H  -0.246834  -1.147267   0.804961
H   0.767666   0.007774   0.309870
H  -0.030982  -1.490619  -0.977269
