butane_opt
 OpenBabel08242015413D

 14 13  0  0  0  0  0  0  0  0999 V2000
   -3.9612    0.2887   -0.0205 C   0  0  0  0  0  0  0  0  0  0  0  0
   -2.6746   -0.6287    0.0939 C   0  0  0  0  0  0  0  0  0  0  0  0
   -4.8880   -0.3036    0.0446 H   0  0  0  0  0  0  0  0  0  0  0  0
   -3.9750    0.9509   -0.9392 H   0  0  0  0  0  0  0  0  0  0  0  0
   -3.9984    0.8725    0.8148 H   0  0  0  0  0  0  0  0  0  0  0  0
   -1.3916    0.1442    0.0231 C   0  0  0  0  0  0  0  0  0  0  0  0
   -2.6711   -1.2263   -0.6487 H   0  0  0  0  0  0  0  0  0  0  0  0
   -2.7337   -1.3012    1.0155 H   0  0  0  0  0  0  0  0  0  0  0  0
   -0.1883   -0.6745   -0.0207 C   0  0  0  0  0  0  0  0  0  0  0  0
   -1.3118    0.8841    0.9286 H   0  0  0  0  0  0  0  0  0  0  0  0
   -1.3669    0.7280   -0.8404 H   0  0  0  0  0  0  0  0  0  0  0  0
   -0.2468   -1.1473    0.8050 H   0  0  0  0  0  0  0  0  0  0  0  0
    0.7677    0.0078    0.3099 H   0  0  0  0  0  0  0  0  0  0  0  0
   -0.0310   -1.4906   -0.9773 H   0  0  0  0  0  0  0  0  0  0  0  0
  1  3  1  0  0  0  0
  1  2  1  0  0  0  0
  1  5  1  0  0  0  0
  2  8  1  0  0  0  0
  4  1  1  0  0  0  0
  6  2  1  0  0  0  0
  6 10  1  0  0  0  0
  7  2  1  0  0  0  0
  9  6  1  0  0  0  0
  9 13  1  0  0  0  0
  9 12  1  0  0  0  0
 11  6  1  0  0  0  0
 14  9  1  0  0  0  0
M  END
$$$$
