butane_opt
 OpenBabel08242015413D

 14 13  0  0  0  0  0  0  0  0999 V2000
   -3.9240    0.2422   -0.0435 C   0  0  0  0  0  0  0  0  0  0  0  0
   -2.6957   -0.5898    0.0972 C   0  0  0  0  0  0  0  0  0  0  0  0
   -4.8220   -0.2994   -0.0690 H   0  0  0  0  0  0  0  0  0  0  0  0
   -3.8498    0.8487   -0.9448 H   0  0  0  0  0  0  0  0  0  0  0  0
   -4.0191    0.8690    0.7495 H   0  0  0  0  0  0  0  0  0  0  0  0
   -1.4227    0.2081    0.0987 C   0  0  0  0  0  0  0  0  0  0  0  0
   -2.7238   -1.3196   -0.7523 H   0  0  0  0  0  0  0  0  0  0  0  0
   -2.7625   -1.2449    1.0190 H   0  0  0  0  0  0  0  0  0  0  0  0
   -0.1713   -0.7182   -0.0393 C   0  0  0  0  0  0  0  0  0  0  0  0
   -1.3279    0.9396    0.9965 H   0  0  0  0  0  0  0  0  0  0  0  0
   -1.5052    0.8246   -0.7873 H   0  0  0  0  0  0  0  0  0  0  0  0
   -0.0080   -1.4388    0.9082 H   0  0  0  0  0  0  0  0  0  0  0  0
    0.7960   -0.1096   -0.1476 H   0  0  0  0  0  0  0  0  0  0  0  0
   -0.2421   -1.2434   -0.8729 H   0  0  0  0  0  0  0  0  0  0  0  0
  1  2  1  0  0  0  0
  1  5  1  0  0  0  0
  2  6  1  0  0  0  0
  2  8  1  0  0  0  0
  3  1  1  0  0  0  0
  4  1  1  0  0  0  0
  6 10  1  0  0  0  0
  7  2  1  0  0  0  0
  9  6  1  0  0  0  0
  9 12  1  0  0  0  0
 11  6  1  0  0  0  0
 13  9  1  0  0  0  0
 14  9  1  0  0  0  0
M  END
$$$$
