14
butane_opt
C  -3.923952   0.242242  -0.043475
C  -2.695697  -0.589778   0.097189
H  -4.821984  -0.299442  -0.068956
H  -3.849804   0.848725  -0.944839
H  -4.019115   0.869012   0.749527
C  -1.422706   0.208139   0.098724
H  -2.723835  -1.319581  -0.752317
H  -2.762538  -1.244857   1.019004
C  -0.171275  -0.718151  -0.039255
H  -1.327866   0.939597   0.996453
H  -1.505210   0.824559  -0.787257
H  -0.007956  -1.438816   0.908196
H   0.795978  -0.109594  -0.147607
H  -0.242097  -1.243450  -0.872881
