14
butane_opt
C  -3.940668   0.261221   0.028946
C  -2.722850  -0.621321  -0.002117
H  -4.852943  -0.398628   0.082769
H  -4.001945   0.898155  -0.865723
H  -3.966085   0.999588   0.932666
C  -1.397856   0.207726   0.007247
H  -2.757004  -1.292349  -0.821135
H  -2.799446  -1.276882   0.903458
C  -0.136259  -0.707963   0.054161
H  -1.427856   0.972531   0.910285
H  -1.388003   0.801340  -0.836826
H   0.022758  -1.483467   1.018828
H   0.752958  -0.144573  -0.167497
H  -0.228035  -1.221040  -0.751777
