butane_opt
 OpenBabel08242015413D

 14 13  0  0  0  0  0  0  0  0999 V2000
   -3.9397    0.2512   -0.0126 C   0  0  0  0  0  0  0  0  0  0  0  0
   -2.7201   -0.6012    0.0711 C   0  0  0  0  0  0  0  0  0  0  0  0
   -4.8184   -0.3567   -0.1118 H   0  0  0  0  0  0  0  0  0  0  0  0
   -3.9646    0.8127   -0.8700 H   0  0  0  0  0  0  0  0  0  0  0  0
   -4.1044    1.0229    0.9009 H   0  0  0  0  0  0  0  0  0  0  0  0
   -1.3985    0.2096    0.0383 C   0  0  0  0  0  0  0  0  0  0  0  0
   -2.7562   -1.2054   -0.7281 H   0  0  0  0  0  0  0  0  0  0  0  0
   -2.7294   -1.3140    1.0405 H   0  0  0  0  0  0  0  0  0  0  0  0
   -0.1461   -0.7099    0.0025 C   0  0  0  0  0  0  0  0  0  0  0  0
   -1.3292    0.8594    0.8709 H   0  0  0  0  0  0  0  0  0  0  0  0
   -1.4296    0.7301   -0.8189 H   0  0  0  0  0  0  0  0  0  0  0  0
   -0.1423   -1.3351    0.9017 H   0  0  0  0  0  0  0  0  0  0  0  0
    0.7862   -0.1163   -0.0564 H   0  0  0  0  0  0  0  0  0  0  0  0
   -0.0694   -1.3615   -0.8795 H   0  0  0  0  0  0  0  0  0  0  0  0
  1  2  1  0  0  0  0
  1  5  1  0  0  0  0
  2  8  1  0  0  0  0
  3  1  1  0  0  0  0
  4  1  1  0  0  0  0
  6  2  1  0  0  0  0
  6 10  1  0  0  0  0
  7  2  1  0  0  0  0
  9  6  1  0  0  0  0
  9 12  1  0  0  0  0
 11  6  1  0  0  0  0
 13  9  1  0  0  0  0
 14  9  1  0  0  0  0
M  END
$$$$
