14
butane_opt
C  -3.966903   0.269220   0.063554
C  -2.695371  -0.630086   0.020912
H  -4.893043  -0.333222  -0.188605
H  -3.975639   0.764515  -0.761944
H  -4.107891   1.102370   0.990080
C  -1.393216   0.168618  -0.025261
H  -2.642595  -1.310733  -0.895054
H  -2.664595  -1.198004   0.859897
C  -0.154675  -0.681263   0.063497
H  -1.391582   0.793976   0.783170
H  -1.313661   0.925244  -1.018930
H  -0.106497  -1.402952   1.021558
H   0.752074  -0.050753  -0.037352
H  -0.149702  -1.297884  -0.760230
