butane_opt
 OpenBabel08242015413D

 14 13  0  0  0  0  0  0  0  0999 V2000
   -3.9639    0.2760    0.0072 C   0  0  0  0  0  0  0  0  0  0  0  0
   -2.6982   -0.6256    0.0494 C   0  0  0  0  0  0  0  0  0  0  0  0
   -4.8770   -0.3795    0.1423 H   0  0  0  0  0  0  0  0  0  0  0  0
   -4.0676    1.1014   -1.0039 H   0  0  0  0  0  0  0  0  0  0  0  0
   -3.9523    0.7581    0.7459 H   0  0  0  0  0  0  0  0  0  0  0  0
   -1.4104    0.1615    0.0171 C   0  0  0  0  0  0  0  0  0  0  0  0
   -2.6712   -1.2598   -0.7617 H   0  0  0  0  0  0  0  0  0  0  0  0
   -2.7113   -1.2547    1.0044 H   0  0  0  0  0  0  0  0  0  0  0  0
   -0.1418   -0.6801    0.0175 C   0  0  0  0  0  0  0  0  0  0  0  0
   -1.3453    0.9986    0.9898 H   0  0  0  0  0  0  0  0  0  0  0  0
   -1.3321    0.7237   -0.8258 H   0  0  0  0  0  0  0  0  0  0  0  0
   -0.1506   -1.2017    0.8501 H   0  0  0  0  0  0  0  0  0  0  0  0
    0.7742   -0.0638    0.1031 H   0  0  0  0  0  0  0  0  0  0  0  0
   -0.1174   -1.4823   -0.9398 H   0  0  0  0  0  0  0  0  0  0  0  0
  1  2  1  0  0  0  0
  1  3  1  0  0  0  0
  1  5  1  0  0  0  0
  2  8  1  0  0  0  0
  4  1  1  0  0  0  0
  6  9  1  0  0  0  0
  6  2  1  0  0  0  0
  6 10  1  0  0  0  0
  7  2  1  0  0  0  0
  9 13  1  0  0  0  0
  9 12  1  0  0  0  0
 11  6  1  0  0  0  0
 14  9  1  0  0  0  0
M  END
$$$$
