14
butane_opt
C  -3.963853   0.275974   0.007193
C  -2.698170  -0.625600   0.049411
H  -4.876986  -0.379520   0.142271
H  -4.067574   1.101388  -1.003910
H  -3.952276   0.758102   0.745880
C  -1.410369   0.161454   0.017068
H  -2.671238  -1.259812  -0.761687
H  -2.711311  -1.254700   1.004427
C  -0.141832  -0.680149   0.017520
H  -1.345254   0.998611   0.989818
H  -1.332122   0.723691  -0.825787
H  -0.150598  -1.201665   0.850144
H   0.774159  -0.063814   0.103102
H  -0.117382  -1.482344  -0.939827
