14
butane_opt
C  -3.913202   0.243565   0.077879
C  -2.715563  -0.574678  -0.002202
H  -4.891498  -0.432943   0.076188
H  -4.028541   0.888023  -0.827394
H  -3.900863   0.919952   1.014496
C  -1.424083   0.194161  -0.077140
H  -2.859123  -1.308990  -0.931272
H  -2.623035  -1.181380   0.846879
C  -0.149931  -0.717139   0.099071
H  -1.450335   0.796210   0.758336
H  -1.323880   0.906669  -1.058367
H  -0.240092  -1.206597   0.930837
H   0.757632  -0.108702   0.257045
H  -0.010157  -1.505878  -0.823211
