14
butane_opt
C  -3.936178   0.252660   0.069597
C  -2.718997  -0.622236  -0.005150
H  -4.873215  -0.338485   0.121113
H  -4.047993   0.834592  -0.743426
H  -3.939454   0.935693   0.957487
C  -1.415458   0.210888  -0.064770
H  -2.783820  -1.370835  -0.956840
H  -2.692903  -1.146657   0.818386
C  -0.127645  -0.706836   0.092614
H  -1.417140   0.888110   0.781931
H  -1.456841   0.941338  -1.020203
H  -0.225521  -1.301231   1.018496
H   0.746161  -0.171618   0.111454
H   0.054658  -1.377146  -0.753382
