butane_opt
 OpenBabel08242015413D

 14 13  0  0  0  0  0  0  0  0999 V2000
   -3.9669    0.2692    0.0636 C   0  0  0  0  0  0  0  0  0  0  0  0
   -2.6954   -0.6301    0.0209 C   0  0  0  0  0  0  0  0  0  0  0  0
   -4.8930   -0.3332   -0.1886 H   0  0  0  0  0  0  0  0  0  0  0  0
   -3.9756    0.7645   -0.7619 H   0  0  0  0  0  0  0  0  0  0  0  0
   -4.1079    1.1024    0.9901 H   0  0  0  0  0  0  0  0  0  0  0  0
   -1.3932    0.1686   -0.0253 C   0  0  0  0  0  0  0  0  0  0  0  0
   -2.6426   -1.3107   -0.8951 H   0  0  0  0  0  0  0  0  0  0  0  0
   -2.6646   -1.1980    0.8599 H   0  0  0  0  0  0  0  0  0  0  0  0
   -0.1547   -0.6813    0.0635 C   0  0  0  0  0  0  0  0  0  0  0  0
   -1.3916    0.7940    0.7832 H   0  0  0  0  0  0  0  0  0  0  0  0
   -1.3137    0.9252   -1.0189 H   0  0  0  0  0  0  0  0  0  0  0  0
   -0.1065   -1.4030    1.0216 H   0  0  0  0  0  0  0  0  0  0  0  0
    0.7521   -0.0508   -0.0374 H   0  0  0  0  0  0  0  0  0  0  0  0
   -0.1497   -1.2979   -0.7602 H   0  0  0  0  0  0  0  0  0  0  0  0
  1  5  1  0  0  0  0
  2  1  1  0  0  0  0
  2  8  1  0  0  0  0
  3  1  1  0  0  0  0
  4  1  1  0  0  0  0
  6  2  1  0  0  0  0
  6  9  1  0  0  0  0
  6 10  1  0  0  0  0
  7  2  1  0  0  0  0
  9 12  1  0  0  0  0
 11  6  1  0  0  0  0
 13  9  1  0  0  0  0
 14  9  1  0  0  0  0
M  END
$$$$
