butane_opt
 OpenBabel08242015413D

 14 13  0  0  0  0  0  0  0  0999 V2000
   -3.9374    0.2567    0.0405 C   0  0  0  0  0  0  0  0  0  0  0  0
   -2.6969   -0.6097    0.0162 C   0  0  0  0  0  0  0  0  0  0  0  0
   -4.8835   -0.3485   -0.0321 H   0  0  0  0  0  0  0  0  0  0  0  0
   -3.9052    0.8177   -0.8345 H   0  0  0  0  0  0  0  0  0  0  0  0
   -3.9509    1.0235    0.9741 H   0  0  0  0  0  0  0  0  0  0  0  0
   -1.3991    0.1962   -0.0069 C   0  0  0  0  0  0  0  0  0  0  0  0
   -2.7281   -1.3566   -0.8732 H   0  0  0  0  0  0  0  0  0  0  0  0
   -2.7128   -1.2010    0.8694 H   0  0  0  0  0  0  0  0  0  0  0  0
   -0.1714   -0.7021    0.0484 C   0  0  0  0  0  0  0  0  0  0  0  0
   -1.3665    0.8530    0.8435 H   0  0  0  0  0  0  0  0  0  0  0  0
   -1.4238    0.8765   -0.9126 H   0  0  0  0  0  0  0  0  0  0  0  0
   -0.1122   -1.4547    1.0391 H   0  0  0  0  0  0  0  0  0  0  0  0
    0.7064   -0.1310   -0.0621 H   0  0  0  0  0  0  0  0  0  0  0  0
   -0.1830   -1.2491   -0.7233 H   0  0  0  0  0  0  0  0  0  0  0  0
  1  5  1  0  0  0  0
  2  1  1  0  0  0  0
  2  8  1  0  0  0  0
  3  1  1  0  0  0  0
  4  1  1  0  0  0  0
  6  2  1  0  0  0  0
  6  9  1  0  0  0  0
  6 10  1  0  0  0  0
  7  2  1  0  0  0  0
  9 12  1  0  0  0  0
 11  6  1  0  0  0  0
 13  9  1  0  0  0  0
 14  9  1  0  0  0  0
M  END
$$$$
