14
butane_opt
C  -3.953613   0.249032  -0.047317
C  -2.707361  -0.600942   0.094438
H  -4.939061  -0.440062   0.089823
H  -4.021634   0.966309  -0.988528
H  -3.896661   0.811640   0.726416
C  -1.416715   0.207987   0.089307
H  -2.645907  -1.250446  -0.732036
H  -2.773215  -1.158376   0.944580
C  -0.134849  -0.709624  -0.020300
H  -1.362171   0.898958   0.956008
H  -1.410294   0.843410  -0.768571
H   0.016209  -1.349078   0.823131
H   0.769872  -0.154506  -0.087305
H  -0.195585  -1.413202  -0.929033
