butane_opt
 OpenBabel08242015413D

 14 13  0  0  0  0  0  0  0  0999 V2000
   -3.9557    0.2558   -0.0340 C   0  0  0  0  0  0  0  0  0  0  0  0
   -2.7129   -0.6106    0.0677 C   0  0  0  0  0  0  0  0  0  0  0  0
   -4.9581   -0.4266    0.2666 H   0  0  0  0  0  0  0  0  0  0  0  0
   -4.0098    1.0958   -1.0221 H   0  0  0  0  0  0  0  0  0  0  0  0
   -3.9281    0.7125    0.6970 H   0  0  0  0  0  0  0  0  0  0  0  0
   -1.4002    0.2052    0.0847 C   0  0  0  0  0  0  0  0  0  0  0  0
   -2.6001   -1.2787   -0.7925 H   0  0  0  0  0  0  0  0  0  0  0  0
   -2.8449   -1.2537    0.9672 H   0  0  0  0  0  0  0  0  0  0  0  0
   -0.1294   -0.7077   -0.0178 C   0  0  0  0  0  0  0  0  0  0  0  0
   -1.3835    0.9731    0.9696 H   0  0  0  0  0  0  0  0  0  0  0  0
   -1.4659    0.8368   -0.7630 H   0  0  0  0  0  0  0  0  0  0  0  0
   -0.0185   -1.2560    0.8121 H   0  0  0  0  0  0  0  0  0  0  0  0
    0.7116   -0.1812   -0.0081 H   0  0  0  0  0  0  0  0  0  0  0  0
   -0.1300   -1.4260   -0.9063 H   0  0  0  0  0  0  0  0  0  0  0  0
  1  2  1  0  0  0  0
  1  3  1  0  0  0  0
  1  5  1  0  0  0  0
  2  6  1  0  0  0  0
  2  8  1  0  0  0  0
  4  1  1  0  0  0  0
  6 10  1  0  0  0  0
  7  2  1  0  0  0  0
  9 13  1  0  0  0  0
  9  6  1  0  0  0  0
  9 12  1  0  0  0  0
 11  6  1  0  0  0  0
 14  9  1  0  0  0  0
M  END
$$$$
