14
butane_opt
C  -3.955652   0.255842  -0.033986
C  -2.712899  -0.610640   0.067715
H  -4.958070  -0.426592   0.266557
H  -4.009775   1.095771  -1.022142
H  -3.928063   0.712451   0.697034
C  -1.400227   0.205241   0.084719
H  -2.600124  -1.278699  -0.792545
H  -2.844933  -1.253651   0.967198
C  -0.129438  -0.707696  -0.017751
H  -1.383513   0.973136   0.969563
H  -1.465894   0.836766  -0.762978
H  -0.018510  -1.255983   0.812065
H   0.711563  -0.181227  -0.008117
H  -0.130024  -1.426006  -0.906345
