butane_opt
 OpenBabel08242015413D

 14 13  0  0  0  0  0  0  0  0999 V2000
   -3.9174    0.2349   -0.0253 C   0  0  0  0  0  0  0  0  0  0  0  0
   -2.6985   -0.5895    0.0718 C   0  0  0  0  0  0  0  0  0  0  0  0
   -4.8654   -0.3374   -0.0113 H   0  0  0  0  0  0  0  0  0  0  0  0
   -3.9043    0.8914   -0.9809 H   0  0  0  0  0  0  0  0  0  0  0  0
   -3.9874    0.8299    0.7937 H   0  0  0  0  0  0  0  0  0  0  0  0
   -1.4209    0.2124    0.0784 C   0  0  0  0  0  0  0  0  0  0  0  0
   -2.6693   -1.2288   -0.7551 H   0  0  0  0  0  0  0  0  0  0  0  0
   -2.7493   -1.2106    0.9579 H   0  0  0  0  0  0  0  0  0  0  0  0
   -0.1624   -0.7094   -0.0213 C   0  0  0  0  0  0  0  0  0  0  0  0
   -1.3394    0.9489    0.9704 H   0  0  0  0  0  0  0  0  0  0  0  0
   -1.5781    0.7826   -0.7136 H   0  0  0  0  0  0  0  0  0  0  0  0
   -0.0354   -1.5162    0.9570 H   0  0  0  0  0  0  0  0  0  0  0  0
    0.7501   -0.1226   -0.1350 H   0  0  0  0  0  0  0  0  0  0  0  0
   -0.2428   -1.2957   -0.8667 H   0  0  0  0  0  0  0  0  0  0  0  0
  1  3  1  0  0  0  0
  1  2  1  0  0  0  0
  1  5  1  0  0  0  0
  2  6  1  0  0  0  0
  2  8  1  0  0  0  0
  4  1  1  0  0  0  0
  6 10  1  0  0  0  0
  7  2  1  0  0  0  0
  9  6  1  0  0  0  0
  9 12  1  0  0  0  0
 11  6  1  0  0  0  0
 13  9  1  0  0  0  0
 14  9  1  0  0  0  0
M  END
$$$$
