14
butane_opt
C  -3.917418   0.234879  -0.025331
C  -2.698545  -0.589542   0.071816
H  -4.865401  -0.337448  -0.011284
H  -3.904334   0.891436  -0.980857
H  -3.987418   0.829896   0.793710
C  -1.420943   0.212376   0.078431
H  -2.669323  -1.228819  -0.755083
H  -2.749282  -1.210590   0.957852
C  -0.162370  -0.709439  -0.021316
H  -1.339367   0.948866   0.970377
H  -1.578062   0.782650  -0.713631
H  -0.035427  -1.516180   0.957045
H   0.750130  -0.122565  -0.134987
H  -0.242834  -1.295726  -0.866733
