14
butane_opt
C  -3.945625   0.249826   0.014518
C  -2.712579  -0.592895   0.053402
H  -4.847401  -0.382597   0.175552
H  -3.969378   1.038393  -1.049238
H  -3.934238   0.672022   0.682281
C  -1.394556   0.210923   0.030618
H  -2.771137  -1.288816  -0.767353
H  -2.792072  -1.164006   0.893926
C  -0.156550  -0.719032   0.015931
H  -1.380906   0.942893   0.931287
H  -1.406550   0.803231  -0.834131
H  -0.065278  -1.208235   0.800775
H   0.691255  -0.167774   0.088994
H  -0.035482  -1.503411  -0.890192
