14
butane_opt
C  -3.946221   0.256010   0.069268
C  -2.697783  -0.594695   0.000012
H  -4.863113  -0.301949   0.005678
H  -3.920276   0.727036  -0.752392
H  -3.924364   0.991852   1.002909
C  -1.420935   0.179637  -0.049640
H  -2.774660  -1.341718  -0.918597
H  -2.614926  -1.213351   0.886996
C  -0.161148  -0.694069   0.074926
H  -1.363524   0.782195   0.704036
H  -1.341250   0.935421  -1.050081
H  -0.201089  -1.332336   1.003401
H   0.731572  -0.111714   0.227592
H  -0.040896  -1.379438  -0.785731
