14
butane_opt
C  -3.915390   0.246028   0.028423
C  -2.702276  -0.593268   0.001919
H  -4.809209  -0.304958   0.047397
H  -4.002371   0.824556  -0.869335
H  -3.809770   0.919456   0.922970
C  -1.420380   0.208074   0.017017
H  -2.761217  -1.299434  -0.859775
H  -2.792481  -1.249608   0.894798
C  -0.164336  -0.711506   0.041450
H  -1.421503   0.872281   0.891695
H  -1.462104   0.797622  -0.825149
H  -0.076601  -1.464973   1.067970
H   0.700867  -0.125903  -0.171963
H  -0.166548  -1.220424  -0.714169
