butane_opt
 OpenBabel08242015413D

 14 13  0  0  0  0  0  0  0  0999 V2000
   -3.9772    0.2680    0.0428 C   0  0  0  0  0  0  0  0  0  0  0  0
   -2.7000   -0.6151    0.0078 C   0  0  0  0  0  0  0  0  0  0  0  0
   -4.8957   -0.3156    0.1282 H   0  0  0  0  0  0  0  0  0  0  0  0
   -4.1073    0.9628   -0.8996 H   0  0  0  0  0  0  0  0  0  0  0  0
   -3.9156    0.8710    0.8902 H   0  0  0  0  0  0  0  0  0  0  0  0
   -1.3855    0.1745   -0.0049 C   0  0  0  0  0  0  0  0  0  0  0  0
   -2.7394   -1.2416   -0.8102 H   0  0  0  0  0  0  0  0  0  0  0  0
   -2.6795   -1.2477    0.8337 H   0  0  0  0  0  0  0  0  0  0  0  0
   -0.1596   -0.6917    0.0555 C   0  0  0  0  0  0  0  0  0  0  0  0
   -1.4136    0.8330    0.8340 H   0  0  0  0  0  0  0  0  0  0  0  0
   -1.2238    0.8092   -0.9335 H   0  0  0  0  0  0  0  0  0  0  0  0
   -0.1347   -1.2815    0.8985 H   0  0  0  0  0  0  0  0  0  0  0  0
    0.8077   -0.0708    0.0958 H   0  0  0  0  0  0  0  0  0  0  0  0
   -0.0588   -1.4094   -0.8353 H   0  0  0  0  0  0  0  0  0  0  0  0
  1  3  1  0  0  0  0
  1  5  1  0  0  0  0
  2  1  1  0  0  0  0
  2  8  1  0  0  0  0
  4  1  1  0  0  0  0
  6  2  1  0  0  0  0
  6  9  1  0  0  0  0
  6 10  1  0  0  0  0
  7  2  1  0  0  0  0
  9 13  1  0  0  0  0
  9 12  1  0  0  0  0
 11  6  1  0  0  0  0
 14  9  1  0  0  0  0
M  END
$$$$
