14
butane_opt
C  -3.966173   0.270556  -0.052911
C  -2.697373  -0.645480   0.119982
H  -4.783096  -0.268418  -0.112706
H  -3.980979   0.773750  -0.871278
H  -4.170341   1.123656   0.899276
C  -1.388219   0.180206   0.051405
H  -2.594378  -1.193332  -0.631113
H  -2.759384  -1.359982   1.068975
C  -0.163078  -0.677591  -0.023706
H  -1.336218   0.870151   0.946236
H  -1.388475   0.788073  -0.840593
H  -0.100872  -1.252442   0.806340
H   0.786204  -0.057951   0.015832
H  -0.124331  -1.421353  -0.963533
