14
butane_opt
C  -3.979434   0.285125   0.059577
C  -2.700834  -0.635418  -0.020083
H  -4.877004  -0.271365   0.144383
H  -4.157824   0.840253  -0.777033
H  -3.851395   0.968554   0.932150
C  -1.375815   0.163131  -0.022738
H  -2.781897  -1.362269  -0.944401
H  -2.678698  -1.124288   0.784570
C  -0.141477  -0.677316   0.088452
H  -1.360261   0.736277   0.738113
H  -1.322717   0.861641  -1.007179
H  -0.174742  -1.365532   1.022538
H   0.739018  -0.091181  -0.009506
H  -0.187650  -1.290222  -0.696856
