14
butane_opt
C  -3.943117   0.275302   0.036763
C  -2.692830  -0.623129   0.012925
H  -4.819087  -0.311618   0.198356
H  -4.023223   0.983545  -0.925259
H  -3.908363   0.848993   0.844007
C  -1.407347   0.169290  -0.000857
H  -2.709879  -1.375849  -0.896210
H  -2.651357  -1.179495   0.871816
C  -0.171641  -0.686842   0.051936
H  -1.425535   0.830720   0.826060
H  -1.362799   0.771569  -0.875963
H  -0.180663  -1.289502   0.935594
H   0.797540  -0.038352   0.050557
H  -0.167262  -1.311236  -0.805659
