butane_opt
 OpenBabel08242015413D

 14 13  0  0  0  0  0  0  0  0999 V2000
   -3.9441    0.2797   -0.0158 C   0  0  0  0  0  0  0  0  0  0  0  0
   -2.6903   -0.6214    0.0635 C   0  0  0  0  0  0  0  0  0  0  0  0
   -4.8754   -0.3359    0.0006 H   0  0  0  0  0  0  0  0  0  0  0  0
   -3.9232    0.9249   -0.9385 H   0  0  0  0  0  0  0  0  0  0  0  0
   -3.9851    0.9031    0.8011 H   0  0  0  0  0  0  0  0  0  0  0  0
   -1.3950    0.1687    0.0661 C   0  0  0  0  0  0  0  0  0  0  0  0
   -2.6637   -1.3311   -0.7851 H   0  0  0  0  0  0  0  0  0  0  0  0
   -2.7306   -1.2642    0.9694 H   0  0  0  0  0  0  0  0  0  0  0  0
   -0.1824   -0.6850    0.0011 C   0  0  0  0  0  0  0  0  0  0  0  0
   -1.3224    0.8755    0.9442 H   0  0  0  0  0  0  0  0  0  0  0  0
   -1.4547    0.7873   -0.8131 H   0  0  0  0  0  0  0  0  0  0  0  0
   -0.0940   -1.3627    0.9226 H   0  0  0  0  0  0  0  0  0  0  0  0
    0.7857   -0.0605   -0.1715 H   0  0  0  0  0  0  0  0  0  0  0  0
   -0.2288   -1.3021   -0.8660 H   0  0  0  0  0  0  0  0  0  0  0  0
  1  3  1  0  0  0  0
  1  2  1  0  0  0  0
  1  5  1  0  0  0  0
  2  6  1  0  0  0  0
  2  8  1  0  0  0  0
  4  1  1  0  0  0  0
  6 10  1  0  0  0  0
  7  2  1  0  0  0  0
  9  6  1  0  0  0  0
  9 12  1  0  0  0  0
 11  6  1  0  0  0  0
 13  9  1  0  0  0  0
 14  9  1  0  0  0  0
M  END
$$$$
