14
butane_opt
C  -3.940972   0.272955   0.030164
C  -2.677328  -0.636519   0.037451
H  -4.851747  -0.281204  -0.221067
H  -3.931057   0.708914  -0.769956
H  -4.019959   1.181751   1.008165
C  -1.410373   0.158225  -0.012260
H  -2.782219  -1.187299  -0.749022
H  -2.656369  -1.329408   0.961458
C  -0.167180  -0.678686   0.043462
H  -1.433632   0.838042   0.831578
H  -1.365259   0.894493  -0.940438
H  -0.213933  -1.330767   0.982228
H   0.805377  -0.040154  -0.003894
H  -0.227702  -1.328851  -0.836063
