butane_opt
 OpenBabel08242015413D

 14 13  0  0  0  0  0  0  0  0999 V2000
   -3.9782    0.2707    0.0444 C   0  0  0  0  0  0  0  0  0  0  0  0
   -2.6841   -0.6230    0.0090 C   0  0  0  0  0  0  0  0  0  0  0  0
   -4.9037   -0.3631   -0.1002 H   0  0  0  0  0  0  0  0  0  0  0  0
   -3.9944    0.7327   -0.7167 H   0  0  0  0  0  0  0  0  0  0  0  0
   -3.9211    1.0904    1.0118 H   0  0  0  0  0  0  0  0  0  0  0  0
   -1.3988    0.1945   -0.0182 C   0  0  0  0  0  0  0  0  0  0  0  0
   -2.6944   -1.2960   -0.8015 H   0  0  0  0  0  0  0  0  0  0  0  0
   -2.7493   -1.2775    0.8962 H   0  0  0  0  0  0  0  0  0  0  0  0
   -0.1553   -0.6915    0.0500 C   0  0  0  0  0  0  0  0  0  0  0  0
   -1.4309    0.8200    0.7671 H   0  0  0  0  0  0  0  0  0  0  0  0
   -1.3147    0.8276   -0.9386 H   0  0  0  0  0  0  0  0  0  0  0  0
   -0.1251   -1.4235    1.0395 H   0  0  0  0  0  0  0  0  0  0  0  0
    0.7893   -0.0972   -0.0219 H   0  0  0  0  0  0  0  0  0  0  0  0
   -0.0900   -1.2849   -0.6990 H   0  0  0  0  0  0  0  0  0  0  0  0
  1  5  1  0  0  0  0
  2  1  1  0  0  0  0
  2  8  1  0  0  0  0
  3  1  1  0  0  0  0
  4  1  1  0  0  0  0
  6  2  1  0  0  0  0
  6  9  1  0  0  0  0
  6 10  1  0  0  0  0
  7  2  1  0  0  0  0
  9 12  1  0  0  0  0
 11  6  1  0  0  0  0
 13  9  1  0  0  0  0
 14  9  1  0  0  0  0
M  END
$$$$
