14
butane_opt
C  -3.964453   0.266490  -0.029082
C  -2.699430  -0.614286   0.128998
H  -4.912465  -0.409644  -0.243330
H  -3.822806   0.790279  -0.890175
H  -4.038246   1.000020   0.837906
C  -1.406669   0.193901   0.050786
H  -2.708379  -1.307312  -0.776175
H  -2.763825  -1.239385   1.039564
C  -0.144512  -0.704460  -0.022843
H  -1.344465   0.912054   0.900197
H  -1.428915   0.843902  -0.874967
H  -0.065355  -1.276459   0.826591
H   0.734485  -0.134265  -0.036784
H  -0.090725  -1.364349  -0.874274
