butane_opt
 OpenBabel08242015413D

 14 13  0  0  0  0  0  0  0  0999 V2000
   -3.9419    0.2771    0.0749 C   0  0  0  0  0  0  0  0  0  0  0  0
   -2.6805   -0.6520   -0.0085 C   0  0  0  0  0  0  0  0  0  0  0  0
   -4.8162   -0.2187    0.1308 H   0  0  0  0  0  0  0  0  0  0  0  0
   -4.0494    0.8789   -0.8054 H   0  0  0  0  0  0  0  0  0  0  0  0
   -3.9624    0.9666    0.9618 H   0  0  0  0  0  0  0  0  0  0  0  0
   -1.3937    0.1658   -0.0607 C   0  0  0  0  0  0  0  0  0  0  0  0
   -2.6945   -1.3706   -0.9022 H   0  0  0  0  0  0  0  0  0  0  0  0
   -2.6856   -1.1319    0.7970 H   0  0  0  0  0  0  0  0  0  0  0  0
   -0.1753   -0.6738    0.0916 C   0  0  0  0  0  0  0  0  0  0  0  0
   -1.4490    0.7839    0.7640 H   0  0  0  0  0  0  0  0  0  0  0  0
   -1.3988    0.8889   -0.9965 H   0  0  0  0  0  0  0  0  0  0  0  0
   -0.3357   -1.2670    0.9659 H   0  0  0  0  0  0  0  0  0  0  0  0
    0.7522   -0.0557    0.1342 H   0  0  0  0  0  0  0  0  0  0  0  0
   -0.0906   -1.3535   -0.7739 H   0  0  0  0  0  0  0  0  0  0  0  0
  1  3  1  0  0  0  0
  1  5  1  0  0  0  0
  2  1  1  0  0  0  0
  2  8  1  0  0  0  0
  4  1  1  0  0  0  0
  6  2  1  0  0  0  0
  6  9  1  0  0  0  0
  6 10  1  0  0  0  0
  7  2  1  0  0  0  0
  9 13  1  0  0  0  0
  9 12  1  0  0  0  0
 11  6  1  0  0  0  0
 14  9  1  0  0  0  0
M  END
$$$$
