14
butane_opt
C  -3.941893   0.277120   0.074931
C  -2.680518  -0.652005  -0.008534
H  -4.816248  -0.218699   0.130783
H  -4.049353   0.878945  -0.805352
H  -3.962435   0.966639   0.961786
C  -1.393708   0.165805  -0.060750
H  -2.694491  -1.370606  -0.902246
H  -2.685583  -1.131891   0.797047
C  -0.175349  -0.673756   0.091564
H  -1.449014   0.783907   0.763993
H  -1.398799   0.888899  -0.996453
H  -0.335715  -1.266984   0.965883
H   0.752161  -0.055660   0.134206
H  -0.090560  -1.353454  -0.773859
