14
butane_opt
C  -3.968360   0.274815   0.051126
C  -2.687828  -0.642799   0.011541
H  -4.868176  -0.280408  -0.154992
H  -3.985846   0.686334  -0.681404
H  -4.028955   1.246256   1.105857
C  -1.408767   0.178289  -0.030031
H  -2.716527  -1.410700  -0.884552
H  -2.680465  -1.259383   0.870241
C  -0.150524  -0.667019   0.065541
H  -1.344330   0.702935   0.691328
H  -1.305114   0.906040  -1.028203
H  -0.089534  -1.422091   1.119777
H   0.727025  -0.130334  -0.006694
H  -0.150789  -1.228907  -0.723661
