butane_opt
 OpenBabel08242015413D

 14 13  0  0  0  0  0  0  0  0999 V2000
   -3.9681    0.2741    0.0666 C   0  0  0  0  0  0  0  0  0  0  0  0
   -2.6935   -0.6188   -0.0047 C   0  0  0  0  0  0  0  0  0  0  0  0
   -4.8137   -0.2961    0.0242 H   0  0  0  0  0  0  0  0  0  0  0  0
   -4.1151    0.8176   -0.7605 H   0  0  0  0  0  0  0  0  0  0  0  0
   -3.9236    1.0515    1.0046 H   0  0  0  0  0  0  0  0  0  0  0  0
   -1.3826    0.1560   -0.0616 C   0  0  0  0  0  0  0  0  0  0  0  0
   -2.8367   -1.2644   -0.8517 H   0  0  0  0  0  0  0  0  0  0  0  0
   -2.7301   -1.2860    0.9223 H   0  0  0  0  0  0  0  0  0  0  0  0
   -0.1542   -0.6940    0.0732 C   0  0  0  0  0  0  0  0  0  0  0  0
   -1.4021    0.7795    0.7616 H   0  0  0  0  0  0  0  0  0  0  0  0
   -1.3445    0.9097   -1.0010 H   0  0  0  0  0  0  0  0  0  0  0  0
   -0.3046   -1.1648    0.9303 H   0  0  0  0  0  0  0  0  0  0  0  0
    0.8024   -0.0501    0.2754 H   0  0  0  0  0  0  0  0  0  0  0  0
    0.0218   -1.3735   -0.7565 H   0  0  0  0  0  0  0  0  0  0  0  0
  1  5  1  0  0  0  0
  2  1  1  0  0  0  0
  2  8  1  0  0  0  0
  3  1  1  0  0  0  0
  4  1  1  0  0  0  0
  6  2  1  0  0  0  0
  6  9  1  0  0  0  0
  6 10  1  0  0  0  0
  7  2  1  0  0  0  0
  9 13  1  0  0  0  0
  9 12  1  0  0  0  0
 11  6  1  0  0  0  0
 14  9  1  0  0  0  0
M  END
$$$$
