butane_opt
 OpenBabel08242015413D

 14 13  0  0  0  0  0  0  0  0999 V2000
   -3.9155    0.2481    0.0155 C   0  0  0  0  0  0  0  0  0  0  0  0
   -2.6927   -0.5945    0.0147 C   0  0  0  0  0  0  0  0  0  0  0  0
   -4.8585   -0.3451    0.2746 H   0  0  0  0  0  0  0  0  0  0  0  0
   -3.9941    1.0466   -1.0336 H   0  0  0  0  0  0  0  0  0  0  0  0
   -3.8775    0.7562    0.7462 H   0  0  0  0  0  0  0  0  0  0  0  0
   -1.4150    0.1942    0.0520 C   0  0  0  0  0  0  0  0  0  0  0  0
   -2.7990   -1.2677   -0.8766 H   0  0  0  0  0  0  0  0  0  0  0  0
   -2.7710   -1.2316    0.9431 H   0  0  0  0  0  0  0  0  0  0  0  0
   -0.1795   -0.7097    0.0294 C   0  0  0  0  0  0  0  0  0  0  0  0
   -1.4363    0.9095    0.8893 H   0  0  0  0  0  0  0  0  0  0  0  0
   -1.4011    0.8316   -0.8628 H   0  0  0  0  0  0  0  0  0  0  0  0
   -0.0647   -1.2936    0.9089 H   0  0  0  0  0  0  0  0  0  0  0  0
    0.7769   -0.0785   -0.0246 H   0  0  0  0  0  0  0  0  0  0  0  0
   -0.1665   -1.4543   -0.8846 H   0  0  0  0  0  0  0  0  0  0  0  0
  1  3  1  0  0  0  0
  1  5  1  0  0  0  0
  2  1  1  0  0  0  0
  2  6  1  0  0  0  0
  2  8  1  0  0  0  0
  4  1  1  0  0  0  0
  6 10  1  0  0  0  0
  7  2  1  0  0  0  0
  9  6  1  0  0  0  0
  9 12  1  0  0  0  0
 11  6  1  0  0  0  0
 13  9  1  0  0  0  0
 14  9  1  0  0  0  0
M  END
$$$$
