14
butane_opt
C  -3.956968   0.251502  -0.023746
C  -2.717966  -0.597588   0.079860
H  -4.870596  -0.360841   0.217042
H  -4.092704   1.076411  -1.079413
H  -3.892039   0.658830   0.632350
C  -1.390683   0.199840   0.062794
H  -2.721979  -1.246566  -0.740843
H  -2.786246  -1.160192   0.937769
C  -0.137618  -0.715687  -0.007303
H  -1.316385   0.934670   0.989059
H  -1.519598   0.779312  -0.799732
H  -0.099446  -1.158732   0.776008
H   0.803918  -0.139110   0.082897
H  -0.086234  -1.512229  -0.951775
