butane_opt
 OpenBabel08242015413D

 14 13  0  0  0  0  0  0  0  0999 V2000
   -3.9570    0.2515   -0.0237 C   0  0  0  0  0  0  0  0  0  0  0  0
   -2.7180   -0.5976    0.0799 C   0  0  0  0  0  0  0  0  0  0  0  0
   -4.8706   -0.3608    0.2170 H   0  0  0  0  0  0  0  0  0  0  0  0
   -4.0927    1.0764   -1.0794 H   0  0  0  0  0  0  0  0  0  0  0  0
   -3.8920    0.6588    0.6323 H   0  0  0  0  0  0  0  0  0  0  0  0
   -1.3907    0.1998    0.0628 C   0  0  0  0  0  0  0  0  0  0  0  0
   -2.7220   -1.2466   -0.7408 H   0  0  0  0  0  0  0  0  0  0  0  0
   -2.7862   -1.1602    0.9378 H   0  0  0  0  0  0  0  0  0  0  0  0
   -0.1376   -0.7157   -0.0073 C   0  0  0  0  0  0  0  0  0  0  0  0
   -1.3164    0.9347    0.9891 H   0  0  0  0  0  0  0  0  0  0  0  0
   -1.5196    0.7793   -0.7997 H   0  0  0  0  0  0  0  0  0  0  0  0
   -0.0994   -1.1587    0.7760 H   0  0  0  0  0  0  0  0  0  0  0  0
    0.8039   -0.1391    0.0829 H   0  0  0  0  0  0  0  0  0  0  0  0
   -0.0862   -1.5122   -0.9518 H   0  0  0  0  0  0  0  0  0  0  0  0
  1  2  1  0  0  0  0
  1  3  1  0  0  0  0
  1  5  1  0  0  0  0
  2  8  1  0  0  0  0
  4  1  1  0  0  0  0
  6  2  1  0  0  0  0
  6 10  1  0  0  0  0
  7  2  1  0  0  0  0
  9  6  1  0  0  0  0
  9 13  1  0  0  0  0
  9 12  1  0  0  0  0
 11  6  1  0  0  0  0
 14  9  1  0  0  0  0
M  END
$$$$
