butane_opt
 OpenBabel08242015413D

 14 13  0  0  0  0  0  0  0  0999 V2000
   -3.9729    0.2772    0.0371 C   0  0  0  0  0  0  0  0  0  0  0  0
   -2.6876   -0.6555    0.0231 C   0  0  0  0  0  0  0  0  0  0  0  0
   -4.8371   -0.2518   -0.0163 H   0  0  0  0  0  0  0  0  0  0  0  0
   -4.0485    0.9852   -0.8879 H   0  0  0  0  0  0  0  0  0  0  0  0
   -4.0812    0.8730    0.8118 H   0  0  0  0  0  0  0  0  0  0  0  0
   -1.3924    0.1806    0.0118 C   0  0  0  0  0  0  0  0  0  0  0  0
   -2.7182   -1.3120   -0.8305 H   0  0  0  0  0  0  0  0  0  0  0  0
   -2.6219   -1.2079    0.8757 H   0  0  0  0  0  0  0  0  0  0  0  0
   -0.1556   -0.6749    0.0368 C   0  0  0  0  0  0  0  0  0  0  0  0
   -1.2806    0.8455    0.9082 H   0  0  0  0  0  0  0  0  0  0  0  0
   -1.3444    0.7984   -0.8542 H   0  0  0  0  0  0  0  0  0  0  0  0
   -0.1192   -1.3399    0.9473 H   0  0  0  0  0  0  0  0  0  0  0  0
    0.7208   -0.1033   -0.0411 H   0  0  0  0  0  0  0  0  0  0  0  0
   -0.1844   -1.2919   -0.7884 H   0  0  0  0  0  0  0  0  0  0  0  0
  1  5  1  0  0  0  0
  2  1  1  0  0  0  0
  2  8  1  0  0  0  0
  3  1  1  0  0  0  0
  4  1  1  0  0  0  0
  6  2  1  0  0  0  0
  6  9  1  0  0  0  0
  6 10  1  0  0  0  0
  7  2  1  0  0  0  0
  9 12  1  0  0  0  0
 11  6  1  0  0  0  0
 13  9  1  0  0  0  0
 14  9  1  0  0  0  0
M  END
$$$$
