14
butane_opt
C  -3.921667   0.245772  -0.042374
C  -2.684061  -0.610814   0.085725
H  -4.857528  -0.365165   0.064058
H  -3.940649   0.984747  -1.026238
H  -3.955078   0.865460   0.711704
C  -1.415287   0.212792   0.088623
H  -2.784333  -1.261623  -0.752283
H  -2.749157  -1.254957   1.008070
C  -0.171254  -0.716059  -0.027432
H  -1.378997   1.041509   1.069785
H  -1.504154   0.717196  -0.740627
H  -0.088036  -1.368735   0.901333
H   0.744407  -0.119436  -0.224890
H  -0.195096  -1.291417  -0.840477
