butane_opt
 OpenBabel08242015413D

 14 13  0  0  0  0  0  0  0  0999 V2000
   -3.9233    0.2479    0.0070 C   0  0  0  0  0  0  0  0  0  0  0  0
   -2.7130   -0.5940    0.0203 C   0  0  0  0  0  0  0  0  0  0  0  0
   -4.8811   -0.3849    0.0750 H   0  0  0  0  0  0  0  0  0  0  0  0
   -3.9485    0.8259   -0.8225 H   0  0  0  0  0  0  0  0  0  0  0  0
   -3.8489    0.9593    0.9377 H   0  0  0  0  0  0  0  0  0  0  0  0
   -1.4214    0.2115    0.0226 C   0  0  0  0  0  0  0  0  0  0  0  0
   -2.7016   -1.2967   -0.8373 H   0  0  0  0  0  0  0  0  0  0  0  0
   -2.7604   -1.2537    0.9069 H   0  0  0  0  0  0  0  0  0  0  0  0
   -0.1690   -0.7254    0.0340 C   0  0  0  0  0  0  0  0  0  0  0  0
   -1.4027    0.9581    0.9510 H   0  0  0  0  0  0  0  0  0  0  0  0
   -1.3423    0.8276   -0.8575 H   0  0  0  0  0  0  0  0  0  0  0  0
   -0.0387   -1.4483    1.0224 H   0  0  0  0  0  0  0  0  0  0  0  0
    0.7360   -0.1424   -0.2138 H   0  0  0  0  0  0  0  0  0  0  0  0
   -0.1135   -1.1978   -0.7172 H   0  0  0  0  0  0  0  0  0  0  0  0
  1  2  1  0  0  0  0
  1  3  1  0  0  0  0
  1  5  1  0  0  0  0
  2  6  1  0  0  0  0
  2  8  1  0  0  0  0
  4  1  1  0  0  0  0
  6  9  1  0  0  0  0
  6 10  1  0  0  0  0
  7  2  1  0  0  0  0
  9 12  1  0  0  0  0
 11  6  1  0  0  0  0
 13  9  1  0  0  0  0
 14  9  1  0  0  0  0
M  END
$$$$
