butane_opt
 OpenBabel08242015413D

 14 13  0  0  0  0  0  0  0  0999 V2000
   -3.9497    0.2526    0.0283 C   0  0  0  0  0  0  0  0  0  0  0  0
   -2.7123   -0.5966    0.0175 C   0  0  0  0  0  0  0  0  0  0  0  0
   -4.9021   -0.4266   -0.0178 H   0  0  0  0  0  0  0  0  0  0  0  0
   -3.9197    0.8369   -0.8558 H   0  0  0  0  0  0  0  0  0  0  0  0
   -3.9859    0.9604    0.9233 H   0  0  0  0  0  0  0  0  0  0  0  0
   -1.4160    0.2154    0.0366 C   0  0  0  0  0  0  0  0  0  0  0  0
   -2.8421   -1.3771   -0.9255 H   0  0  0  0  0  0  0  0  0  0  0  0
   -2.7306   -1.1945    0.8303 H   0  0  0  0  0  0  0  0  0  0  0  0
   -0.1145   -0.7116    0.0417 C   0  0  0  0  0  0  0  0  0  0  0  0
   -1.4446    0.8515    0.8421 H   0  0  0  0  0  0  0  0  0  0  0  0
   -1.4263    0.8602   -0.8826 H   0  0  0  0  0  0  0  0  0  0  0  0
   -0.0546   -1.5557    1.0786 H   0  0  0  0  0  0  0  0  0  0  0  0
    0.7711   -0.1498   -0.2832 H   0  0  0  0  0  0  0  0  0  0  0  0
   -0.1717   -1.1900   -0.7407 H   0  0  0  0  0  0  0  0  0  0  0  0
  1  5  1  0  0  0  0
  2  1  1  0  0  0  0
  2  6  1  0  0  0  0
  2  8  1  0  0  0  0
  3  1  1  0  0  0  0
  4  1  1  0  0  0  0
  6  9  1  0  0  0  0
  6 10  1  0  0  0  0
  7  2  1  0  0  0  0
  9 12  1  0  0  0  0
 11  6  1  0  0  0  0
 13  9  1  0  0  0  0
 14  9  1  0  0  0  0
M  END
$$$$
