14
butane_opt
C  -3.923125   0.259266   0.048353
C  -2.693524  -0.614634  -0.014886
H  -4.875491  -0.304489   0.013608
H  -3.956484   0.781804  -0.762078
H  -3.918916   0.975766   0.987879
C  -1.420774   0.198363   0.009965
H  -2.787481  -1.388401  -0.958127
H  -2.681245  -1.148946   0.795575
C  -0.167498  -0.703033   0.062262
H  -1.441579   0.789416   0.771771
H  -1.468633   0.868708  -0.897760
H  -0.088406  -1.532407   1.100095
H   0.769110  -0.083866  -0.249895
H  -0.123128  -1.098104  -0.602246
