14
butane_opt
C  -3.953305   0.259598  -0.031967
C  -2.717891  -0.613902   0.080176
H  -4.902502  -0.337096   0.128153
H  -4.014633   1.029970  -1.035540
H  -3.903982   0.709276   0.732476
C  -1.415881   0.198234   0.075555
H  -2.644897  -1.224410  -0.738920
H  -2.796006  -1.199120   0.979447
C  -0.122928  -0.710546  -0.027057
H  -1.334306   0.946069   1.011481
H  -1.403860   0.769270  -0.755530
H  -0.130521  -1.271369   0.844631
H   0.762694  -0.105283  -0.006304
H  -0.126681  -1.401280  -0.908576
