butane_opt
 OpenBabel08242015413D

 14 13  0  0  0  0  0  0  0  0999 V2000
   -3.9319    0.2381    0.0566 C   0  0  0  0  0  0  0  0  0  0  0  0
   -2.7034   -0.5756   -0.0247 C   0  0  0  0  0  0  0  0  0  0  0  0
   -4.8726   -0.3611    0.3066 H   0  0  0  0  0  0  0  0  0  0  0  0
   -4.0057    1.0065   -0.9424 H   0  0  0  0  0  0  0  0  0  0  0  0
   -3.7663    0.7794    0.8873 H   0  0  0  0  0  0  0  0  0  0  0  0
   -1.4084    0.2035   -0.0164 C   0  0  0  0  0  0  0  0  0  0  0  0
   -2.8404   -1.3039   -0.9599 H   0  0  0  0  0  0  0  0  0  0  0  0
   -2.7283   -1.1286    0.8129 H   0  0  0  0  0  0  0  0  0  0  0  0
   -0.1546   -0.7217    0.0924 C   0  0  0  0  0  0  0  0  0  0  0  0
   -1.4745    0.8015    0.7819 H   0  0  0  0  0  0  0  0  0  0  0  0
   -1.4042    0.8273   -0.9036 H   0  0  0  0  0  0  0  0  0  0  0  0
   -0.1350   -1.2845    0.9569 H   0  0  0  0  0  0  0  0  0  0  0  0
    0.7534   -0.1049   -0.0133 H   0  0  0  0  0  0  0  0  0  0  0  0
   -0.1632   -1.4306   -0.8023 H   0  0  0  0  0  0  0  0  0  0  0  0
  1  3  1  0  0  0  0
  1  5  1  0  0  0  0
  2  6  1  0  0  0  0
  2  1  1  0  0  0  0
  2  8  1  0  0  0  0
  4  1  1  0  0  0  0
  6  9  1  0  0  0  0
  6 10  1  0  0  0  0
  7  2  1  0  0  0  0
  9 12  1  0  0  0  0
 11  6  1  0  0  0  0
 13  9  1  0  0  0  0
 14  9  1  0  0  0  0
M  END
$$$$
