butane_opt
 OpenBabel08242015413D

 14 13  0  0  0  0  0  0  0  0999 V2000
   -3.9231    0.2593    0.0484 C   0  0  0  0  0  0  0  0  0  0  0  0
   -2.6935   -0.6146   -0.0149 C   0  0  0  0  0  0  0  0  0  0  0  0
   -4.8755   -0.3045    0.0136 H   0  0  0  0  0  0  0  0  0  0  0  0
   -3.9565    0.7818   -0.7621 H   0  0  0  0  0  0  0  0  0  0  0  0
   -3.9189    0.9758    0.9879 H   0  0  0  0  0  0  0  0  0  0  0  0
   -1.4208    0.1984    0.0100 C   0  0  0  0  0  0  0  0  0  0  0  0
   -2.7875   -1.3884   -0.9581 H   0  0  0  0  0  0  0  0  0  0  0  0
   -2.6812   -1.1489    0.7956 H   0  0  0  0  0  0  0  0  0  0  0  0
   -0.1675   -0.7030    0.0623 C   0  0  0  0  0  0  0  0  0  0  0  0
   -1.4416    0.7894    0.7718 H   0  0  0  0  0  0  0  0  0  0  0  0
   -1.4686    0.8687   -0.8978 H   0  0  0  0  0  0  0  0  0  0  0  0
   -0.0884   -1.5324    1.1001 H   0  0  0  0  0  0  0  0  0  0  0  0
    0.7691   -0.0839   -0.2499 H   0  0  0  0  0  0  0  0  0  0  0  0
   -0.1231   -1.0981   -0.6022 H   0  0  0  0  0  0  0  0  0  0  0  0
  1  5  1  0  0  0  0
  2  6  1  0  0  0  0
  2  1  1  0  0  0  0
  2  8  1  0  0  0  0
  3  1  1  0  0  0  0
  4  1  1  0  0  0  0
  6  9  1  0  0  0  0
  6 10  1  0  0  0  0
  7  2  1  0  0  0  0
  9 12  1  0  0  0  0
 11  6  1  0  0  0  0
 13  9  1  0  0  0  0
 14  9  1  0  0  0  0
M  END
$$$$
