14
butane_opt
C  -3.952504   0.258705  -0.040707
C  -2.680646  -0.597257   0.089284
H  -4.916569  -0.368561   0.162962
H  -3.936821   0.884028  -0.946945
H  -3.896526   0.756170   0.757903
C  -1.413767   0.203739   0.051346
H  -2.688980  -1.147809  -0.642199
H  -2.746219  -1.352778   1.047613
C  -0.154235  -0.700298  -0.019604
H  -1.370390   0.855099   0.913269
H  -1.456962   0.832387  -0.816876
H  -0.241565  -1.113210   0.737475
H   0.741068  -0.166623   0.286491
H  -0.091560  -1.639611  -1.052043
