14
butane_opt
C  -3.945897   0.257863   0.004391
C  -2.694983  -0.600823   0.052310
H  -4.894836  -0.376841  -0.036384
H  -3.896779   0.825893  -0.858806
H  -3.961480   0.906458   0.875325
C  -1.406802   0.199195   0.022784
H  -2.672514  -1.268994  -0.792887
H  -2.741878  -1.235139   0.964392
C  -0.164503  -0.708627   0.015962
H  -1.395943   0.923458   0.882568
H  -1.444669   0.759959  -0.815844
H  -0.053381  -1.378919   0.959002
H   0.755344  -0.105541  -0.064698
H  -0.169375  -1.297036  -0.805192
