14
butane_opt
C  -3.969408   0.252326  -0.035226
C  -2.716547  -0.598962   0.083892
H  -4.877093  -0.302957  -0.097152
H  -3.915956   0.931719  -0.988056
H  -4.001844   0.850113   0.758012
C  -1.392498   0.201293   0.091759
H  -2.643281  -1.206252  -0.737907
H  -2.806786  -1.301485   1.061678
C  -0.142945  -0.708081  -0.024892
H  -1.312948   0.927057   1.010783
H  -1.395190   0.677206  -0.690276
H   0.064886  -1.393171   0.876641
H   0.766249  -0.137723  -0.252996
H  -0.242374  -1.269588  -0.889815
