14
butane_opt
C  -3.962554   0.280273  -0.045853
C  -2.717264  -0.626829   0.072248
H  -4.788759  -0.266184   0.239549
H  -4.029313   1.039755  -1.016662
H  -3.932590   0.860384   0.800060
C  -1.384448   0.151826   0.078149
H  -2.650678  -1.310636  -0.776084
H  -2.759148  -1.285110   0.997015
C  -0.150658  -0.682821  -0.015303
H  -1.360656   0.920967   0.996262
H  -1.396619   0.714169  -0.809417
H  -0.098061  -1.228926   0.830442
H   0.787305  -0.037387  -0.058243
H  -0.229193  -1.321339  -0.840557
