butane_opt
 OpenBabel08242015413D

 14 13  0  0  0  0  0  0  0  0999 V2000
   -3.9569    0.2772    0.0433 C   0  0  0  0  0  0  0  0  0  0  0  0
   -2.7080   -0.6556    0.0259 C   0  0  0  0  0  0  0  0  0  0  0  0
   -4.8133   -0.2664   -0.1300 H   0  0  0  0  0  0  0  0  0  0  0  0
   -4.0060    0.8202   -0.7952 H   0  0  0  0  0  0  0  0  0  0  0  0
   -4.0626    1.0436    0.9207 H   0  0  0  0  0  0  0  0  0  0  0  0
   -1.3994    0.1821   -0.0038 C   0  0  0  0  0  0  0  0  0  0  0  0
   -2.7304   -1.3895   -0.9167 H   0  0  0  0  0  0  0  0  0  0  0  0
   -2.6206   -1.1763    0.8310 H   0  0  0  0  0  0  0  0  0  0  0  0
   -0.1567   -0.6838    0.0571 C   0  0  0  0  0  0  0  0  0  0  0  0
   -1.3355    0.8936    0.8555 H   0  0  0  0  0  0  0  0  0  0  0  0
   -1.3891    0.8750   -0.9466 H   0  0  0  0  0  0  0  0  0  0  0  0
   -0.0116   -1.4385    1.0429 H   0  0  0  0  0  0  0  0  0  0  0  0
    0.7989   -0.0818   -0.1988 H   0  0  0  0  0  0  0  0  0  0  0  0
   -0.2085   -1.1863   -0.6695 H   0  0  0  0  0  0  0  0  0  0  0  0
  1  5  1  0  0  0  0
  2  1  1  0  0  0  0
  2  8  1  0  0  0  0
  3  1  1  0  0  0  0
  4  1  1  0  0  0  0
  6  2  1  0  0  0  0
  6  9  1  0  0  0  0
  6 10  1  0  0  0  0
  7  2  1  0  0  0  0
  9 12  1  0  0  0  0
 11  6  1  0  0  0  0
 13  9  1  0  0  0  0
 14  9  1  0  0  0  0
M  END
$$$$
