butane_opt
 OpenBabel08242015413D

 14 13  0  0  0  0  0  0  0  0999 V2000
   -3.9626    0.2803   -0.0459 C   0  0  0  0  0  0  0  0  0  0  0  0
   -2.7173   -0.6268    0.0722 C   0  0  0  0  0  0  0  0  0  0  0  0
   -4.7888   -0.2662    0.2395 H   0  0  0  0  0  0  0  0  0  0  0  0
   -4.0293    1.0398   -1.0167 H   0  0  0  0  0  0  0  0  0  0  0  0
   -3.9326    0.8604    0.8001 H   0  0  0  0  0  0  0  0  0  0  0  0
   -1.3844    0.1518    0.0781 C   0  0  0  0  0  0  0  0  0  0  0  0
   -2.6507   -1.3106   -0.7761 H   0  0  0  0  0  0  0  0  0  0  0  0
   -2.7591   -1.2851    0.9970 H   0  0  0  0  0  0  0  0  0  0  0  0
   -0.1507   -0.6828   -0.0153 C   0  0  0  0  0  0  0  0  0  0  0  0
   -1.3607    0.9210    0.9963 H   0  0  0  0  0  0  0  0  0  0  0  0
   -1.3966    0.7142   -0.8094 H   0  0  0  0  0  0  0  0  0  0  0  0
   -0.0981   -1.2289    0.8304 H   0  0  0  0  0  0  0  0  0  0  0  0
    0.7873   -0.0374   -0.0582 H   0  0  0  0  0  0  0  0  0  0  0  0
   -0.2292   -1.3213   -0.8406 H   0  0  0  0  0  0  0  0  0  0  0  0
  1  2  1  0  0  0  0
  1  3  1  0  0  0  0
  1  5  1  0  0  0  0
  2  6  1  0  0  0  0
  2  8  1  0  0  0  0
  4  1  1  0  0  0  0
  6 10  1  0  0  0  0
  7  2  1  0  0  0  0
  9  6  1  0  0  0  0
  9 12  1  0  0  0  0
 11  6  1  0  0  0  0
 13  9  1  0  0  0  0
 14  9  1  0  0  0  0
M  END
$$$$
