14
butane_opt
C  -3.953856   0.246307  -0.002840
C  -2.715414  -0.608049   0.053954
H  -4.826295  -0.270664   0.200810
H  -4.041371   1.046318  -1.027913
H  -3.973541   0.731196   0.687383
C  -1.402027   0.203827   0.039651
H  -2.747040  -1.285399  -0.811730
H  -2.686765  -1.242486   0.945474
C  -0.147496  -0.707415   0.009609
H  -1.313189   0.998013   0.998197
H  -1.453589   0.735172  -0.815220
H  -0.012180  -1.261567   0.888101
H   0.783004  -0.121623   0.051113
H  -0.130795  -1.411566  -0.896664
