14
butane_opt
C  -3.951701   0.258075  -0.012560
C  -2.704514  -0.612114   0.062453
H  -4.870456  -0.324375   0.004699
H  -3.924072   0.876673  -0.925521
H  -4.029396   0.922582   0.819359
C  -1.407927   0.196444   0.062502
H  -2.710098  -1.305453  -0.820292
H  -2.705488  -1.278213   0.993932
C  -0.145217  -0.694170   0.003333
H  -1.353183   0.868492   0.893238
H  -1.388104   0.819432  -0.848187
H  -0.018353  -1.346548   0.896730
H   0.704601  -0.144544  -0.116788
H  -0.207758  -1.342597  -0.840378
