butane_opt
 OpenBabel08242015413D

 14 13  0  0  0  0  0  0  0  0999 V2000
   -3.9318    0.2860   -0.0092 C   0  0  0  0  0  0  0  0  0  0  0  0
   -2.6833   -0.6441    0.0746 C   0  0  0  0  0  0  0  0  0  0  0  0
   -4.8847   -0.3241    0.0651 H   0  0  0  0  0  0  0  0  0  0  0  0
   -4.0234    0.9905   -0.9665 H   0  0  0  0  0  0  0  0  0  0  0  0
   -3.8871    0.8510    0.8332 H   0  0  0  0  0  0  0  0  0  0  0  0
   -1.4084    0.1689    0.0103 C   0  0  0  0  0  0  0  0  0  0  0  0
   -2.6814   -1.2624   -0.7218 H   0  0  0  0  0  0  0  0  0  0  0  0
   -2.7664   -1.2904    1.0503 H   0  0  0  0  0  0  0  0  0  0  0  0
   -0.1785   -0.6703    0.0065 C   0  0  0  0  0  0  0  0  0  0  0  0
   -1.2981    0.9464    0.9559 H   0  0  0  0  0  0  0  0  0  0  0  0
   -1.4179    0.7659   -0.8560 H   0  0  0  0  0  0  0  0  0  0  0  0
   -0.2835   -1.1817    0.8215 H   0  0  0  0  0  0  0  0  0  0  0  0
    0.7245   -0.1196    0.2072 H   0  0  0  0  0  0  0  0  0  0  0  0
   -0.0844   -1.5429   -0.9663 H   0  0  0  0  0  0  0  0  0  0  0  0
  1  3  1  0  0  0  0
  1  2  1  0  0  0  0
  1  5  1  0  0  0  0
  2  8  1  0  0  0  0
  4  1  1  0  0  0  0
  6  2  1  0  0  0  0
  6 10  1  0  0  0  0
  7  2  1  0  0  0  0
  9  6  1  0  0  0  0
  9 13  1  0  0  0  0
  9 12  1  0  0  0  0
 11  6  1  0  0  0  0
 14  9  1  0  0  0  0
M  END
$$$$
