14
butane_opt
C  -3.929824   0.247355  -0.005905
C  -2.686305  -0.597734   0.078757
H  -4.859908  -0.374337   0.022458
H  -3.947372   0.922127  -0.940281
H  -3.905794   0.847289   0.792009
C  -1.421406   0.199445   0.034846
H  -2.698428  -1.253979  -0.733675
H  -2.812592  -1.270483   1.048647
C  -0.155845  -0.709108   0.003322
H  -1.452712   0.870161   0.826976
H  -1.422562   0.936500  -0.901363
H  -0.211650  -1.157976   0.776732
H   0.726996  -0.107098   0.237053
H  -0.108578  -1.586251  -1.047750
