butane_opt
 OpenBabel08242015413D

 14 13  0  0  0  0  0  0  0  0999 V2000
   -3.9569    0.2872    0.0527 C   0  0  0  0  0  0  0  0  0  0  0  0
   -2.6903   -0.6543   -0.0127 C   0  0  0  0  0  0  0  0  0  0  0  0
   -4.8629   -0.2558    0.0087 H   0  0  0  0  0  0  0  0  0  0  0  0
   -4.1077    0.7778   -0.7848 H   0  0  0  0  0  0  0  0  0  0  0  0
   -4.0233    1.0575    0.9488 H   0  0  0  0  0  0  0  0  0  0  0  0
   -1.3838    0.1803   -0.0107 C   0  0  0  0  0  0  0  0  0  0  0  0
   -2.7442   -1.3604   -0.8832 H   0  0  0  0  0  0  0  0  0  0  0  0
   -2.6423   -1.2445    0.8158 H   0  0  0  0  0  0  0  0  0  0  0  0
   -0.1597   -0.6753    0.0535 C   0  0  0  0  0  0  0  0  0  0  0  0
   -1.3835    0.8345    0.8454 H   0  0  0  0  0  0  0  0  0  0  0  0
   -1.4328    0.7864   -0.8516 H   0  0  0  0  0  0  0  0  0  0  0  0
   -0.1467   -1.5720    1.1481 H   0  0  0  0  0  0  0  0  0  0  0  0
    0.8096   -0.0375   -0.1039 H   0  0  0  0  0  0  0  0  0  0  0  0
   -0.2079   -1.0994   -0.6572 H   0  0  0  0  0  0  0  0  0  0  0  0
  1  5  1  0  0  0  0
  2  6  1  0  0  0  0
  2  1  1  0  0  0  0
  2  8  1  0  0  0  0
  3  1  1  0  0  0  0
  4  1  1  0  0  0  0
  6  9  1  0  0  0  0
  6 10  1  0  0  0  0
  7  2  1  0  0  0  0
  9 12  1  0  0  0  0
 11  6  1  0  0  0  0
 13  9  1  0  0  0  0
 14  9  1  0  0  0  0
M  END
$$$$
