14
butane_opt
C  -3.940101   0.285349  -0.006920
C  -2.702356  -0.635374   0.090429
H  -4.861023  -0.296041  -0.208408
H  -3.874482   0.859244  -0.862146
H  -4.186097   1.010879   0.841804
C  -1.386158   0.167149   0.046871
H  -2.657121  -1.350945  -0.736556
H  -2.669099  -1.220234   0.949375
C  -0.172756  -0.684468  -0.005780
H  -1.377375   0.822585   0.891902
H  -1.366862   0.781704  -0.844501
H  -0.196197  -1.364805   0.912768
H   0.829172   0.020772  -0.156310
H  -0.248954  -1.320551  -0.844559
