14
butane_opt
C  -3.931779   0.286016  -0.009226
C  -2.683266  -0.644102   0.074614
H  -4.884671  -0.324061   0.065102
H  -4.023414   0.990488  -0.966529
H  -3.887065   0.851017   0.833161
C  -1.408414   0.168949   0.010298
H  -2.681378  -1.262418  -0.721833
H  -2.766425  -1.290384   1.050315
C  -0.178516  -0.670276   0.006517
H  -1.298082   0.946421   0.955885
H  -1.417938   0.765947  -0.855991
H  -0.283529  -1.181711   0.821454
H   0.724466  -0.119607   0.207217
H  -0.084426  -1.542937  -0.966267
