14
butane_opt
C  -3.941643   0.258205   0.050617
C  -2.716732  -0.600343   0.001352
H  -4.967915  -0.446257   0.207582
H  -3.990735   1.009185  -0.911849
H  -3.872219   0.783568   0.862309
C  -1.403741   0.208172  -0.021344
H  -2.836306  -1.304493  -0.913799
H  -2.685645  -1.155139   0.823532
C  -0.135404  -0.716048   0.074096
H  -1.382675   0.875648   0.841612
H  -1.383212   0.822070  -0.921726
H  -0.153536  -1.282073   0.941535
H   0.683887  -0.146808   0.050623
H  -0.048577  -1.446883  -0.821424
