butane_opt
 OpenBabel08242015413D

 14 13  0  0  0  0  0  0  0  0999 V2000
   -3.9298    0.2474   -0.0059 C   0  0  0  0  0  0  0  0  0  0  0  0
   -2.6863   -0.5977    0.0788 C   0  0  0  0  0  0  0  0  0  0  0  0
   -4.8599   -0.3743    0.0225 H   0  0  0  0  0  0  0  0  0  0  0  0
   -3.9474    0.9221   -0.9403 H   0  0  0  0  0  0  0  0  0  0  0  0
   -3.9058    0.8473    0.7920 H   0  0  0  0  0  0  0  0  0  0  0  0
   -1.4214    0.1994    0.0348 C   0  0  0  0  0  0  0  0  0  0  0  0
   -2.6984   -1.2540   -0.7337 H   0  0  0  0  0  0  0  0  0  0  0  0
   -2.8126   -1.2705    1.0486 H   0  0  0  0  0  0  0  0  0  0  0  0
   -0.1558   -0.7091    0.0033 C   0  0  0  0  0  0  0  0  0  0  0  0
   -1.4527    0.8702    0.8270 H   0  0  0  0  0  0  0  0  0  0  0  0
   -1.4226    0.9365   -0.9014 H   0  0  0  0  0  0  0  0  0  0  0  0
   -0.2117   -1.1580    0.7767 H   0  0  0  0  0  0  0  0  0  0  0  0
    0.7270   -0.1071    0.2371 H   0  0  0  0  0  0  0  0  0  0  0  0
   -0.1086   -1.5863   -1.0477 H   0  0  0  0  0  0  0  0  0  0  0  0
  1  3  1  0  0  0  0
  1  2  1  0  0  0  0
  1  5  1  0  0  0  0
  2  8  1  0  0  0  0
  4  1  1  0  0  0  0
  6  2  1  0  0  0  0
  6 10  1  0  0  0  0
  7  2  1  0  0  0  0
  9  6  1  0  0  0  0
  9 13  1  0  0  0  0
  9 12  1  0  0  0  0
 11  6  1  0  0  0  0
 14  9  1  0  0  0  0
M  END
$$$$
