14
butane_opt
C  -3.940778   0.252997  -0.043103
C  -2.695255  -0.589958   0.115453
H  -4.851455  -0.361936  -0.170011
H  -3.750799   0.747677  -0.905726
H  -4.009305   0.990044   0.840164
C  -1.426796   0.194699   0.058504
H  -2.734005  -1.172941  -0.681148
H  -2.809229  -1.393534   1.139118
C  -0.143681  -0.707489  -0.031497
H  -1.458494   0.915952   0.964472
H  -1.455806   0.784799  -0.786466
H  -0.103427  -1.234803   0.805980
H   0.796414  -0.141782  -0.017508
H  -0.176248  -1.403740  -0.943347
