14
butane_opt
C  -3.976702   0.259039  -0.044290
C  -2.701593  -0.610518   0.123593
H  -4.850912  -0.291544  -0.136744
H  -3.888668   0.859865  -0.953183
H  -4.078229   1.006266   0.849252
C  -1.382925   0.170541   0.057642
H  -2.762945  -1.309766  -0.695861
H  -2.750739  -1.253586   1.039686
C  -0.138633  -0.696302  -0.028463
H  -1.324180   0.901269   0.950081
H  -1.502529   0.826323  -0.828006
H  -0.127105  -1.205864   0.857223
H   0.764521  -0.102605  -0.027000
H  -0.108886  -1.376775  -0.925422
