butane_opt
 OpenBabel08242015413D

 14 13  0  0  0  0  0  0  0  0999 V2000
   -3.9408    0.2530   -0.0431 C   0  0  0  0  0  0  0  0  0  0  0  0
   -2.6953   -0.5900    0.1155 C   0  0  0  0  0  0  0  0  0  0  0  0
   -4.8515   -0.3619   -0.1700 H   0  0  0  0  0  0  0  0  0  0  0  0
   -3.7508    0.7477   -0.9057 H   0  0  0  0  0  0  0  0  0  0  0  0
   -4.0093    0.9900    0.8402 H   0  0  0  0  0  0  0  0  0  0  0  0
   -1.4268    0.1947    0.0585 C   0  0  0  0  0  0  0  0  0  0  0  0
   -2.7340   -1.1729   -0.6811 H   0  0  0  0  0  0  0  0  0  0  0  0
   -2.8092   -1.3935    1.1391 H   0  0  0  0  0  0  0  0  0  0  0  0
   -0.1437   -0.7075   -0.0315 C   0  0  0  0  0  0  0  0  0  0  0  0
   -1.4585    0.9160    0.9645 H   0  0  0  0  0  0  0  0  0  0  0  0
   -1.4558    0.7848   -0.7865 H   0  0  0  0  0  0  0  0  0  0  0  0
   -0.1034   -1.2348    0.8060 H   0  0  0  0  0  0  0  0  0  0  0  0
    0.7964   -0.1418   -0.0175 H   0  0  0  0  0  0  0  0  0  0  0  0
   -0.1762   -1.4037   -0.9433 H   0  0  0  0  0  0  0  0  0  0  0  0
  1  2  1  0  0  0  0
  1  5  1  0  0  0  0
  2  8  1  0  0  0  0
  3  1  1  0  0  0  0
  4  1  1  0  0  0  0
  6  2  1  0  0  0  0
  6 10  1  0  0  0  0
  7  2  1  0  0  0  0
  9 13  1  0  0  0  0
  9  6  1  0  0  0  0
  9 12  1  0  0  0  0
 11  6  1  0  0  0  0
 14  9  1  0  0  0  0
M  END
$$$$
