14
butane_opt
C  -3.949545   0.246780  -0.009241
C  -2.722074  -0.590011   0.070622
H  -4.868741  -0.371761  -0.209209
H  -3.917053   0.735139  -0.860114
H  -4.017355   0.975019   0.902222
C  -1.424888   0.199532   0.034615
H  -2.709032  -1.147856  -0.666487
H  -2.821331  -1.286217   1.035057
C  -0.115483  -0.715095   0.003903
H  -1.403761   0.936836   0.920872
H  -1.391597   0.809393  -0.815108
H   0.022412  -1.319356   0.904146
H   0.794891  -0.152539  -0.125729
H  -0.163027  -1.354307  -0.844692
