butane_opt
 OpenBabel08242015413D

 14 13  0  0  0  0  0  0  0  0999 V2000
   -3.9440    0.2433   -0.0192 C   0  0  0  0  0  0  0  0  0  0  0  0
   -2.7302   -0.5918    0.0836 C   0  0  0  0  0  0  0  0  0  0  0  0
   -4.8697   -0.3238    0.0176 H   0  0  0  0  0  0  0  0  0  0  0  0
   -3.9594    0.9068   -0.9689 H   0  0  0  0  0  0  0  0  0  0  0  0
   -3.9048    0.8537    0.8060 H   0  0  0  0  0  0  0  0  0  0  0  0
   -1.4190    0.2014    0.0375 C   0  0  0  0  0  0  0  0  0  0  0  0
   -2.7054   -1.1613   -0.6614 H   0  0  0  0  0  0  0  0  0  0  0  0
   -2.8403   -1.2891    1.0737 H   0  0  0  0  0  0  0  0  0  0  0  0
   -0.1298   -0.7198   -0.0099 C   0  0  0  0  0  0  0  0  0  0  0  0
   -1.3100    0.8949    0.9325 H   0  0  0  0  0  0  0  0  0  0  0  0
   -1.4271    0.8659   -0.8897 H   0  0  0  0  0  0  0  0  0  0  0  0
   -0.1200   -1.1095    0.7459 H   0  0  0  0  0  0  0  0  0  0  0  0
    0.7847   -0.1295    0.2209 H   0  0  0  0  0  0  0  0  0  0  0  0
    0.0026   -1.5853   -0.9675 H   0  0  0  0  0  0  0  0  0  0  0  0
  1  3  1  0  0  0  0
  1  2  1  0  0  0  0
  1  5  1  0  0  0  0
  2  8  1  0  0  0  0
  4  1  1  0  0  0  0
  6  2  1  0  0  0  0
  6 10  1  0  0  0  0
  7  2  1  0  0  0  0
  9  6  1  0  0  0  0
  9 13  1  0  0  0  0
  9 12  1  0  0  0  0
 11  6  1  0  0  0  0
 14  9  1  0  0  0  0
M  END
$$$$
