butane_opt
 OpenBabel08242015413D

 14 13  0  0  0  0  0  0  0  0999 V2000
   -3.9495    0.2468   -0.0092 C   0  0  0  0  0  0  0  0  0  0  0  0
   -2.7221   -0.5900    0.0706 C   0  0  0  0  0  0  0  0  0  0  0  0
   -4.8687   -0.3718   -0.2092 H   0  0  0  0  0  0  0  0  0  0  0  0
   -3.9171    0.7351   -0.8601 H   0  0  0  0  0  0  0  0  0  0  0  0
   -4.0174    0.9750    0.9022 H   0  0  0  0  0  0  0  0  0  0  0  0
   -1.4249    0.1995    0.0346 C   0  0  0  0  0  0  0  0  0  0  0  0
   -2.7090   -1.1479   -0.6665 H   0  0  0  0  0  0  0  0  0  0  0  0
   -2.8213   -1.2862    1.0351 H   0  0  0  0  0  0  0  0  0  0  0  0
   -0.1155   -0.7151    0.0039 C   0  0  0  0  0  0  0  0  0  0  0  0
   -1.4038    0.9368    0.9209 H   0  0  0  0  0  0  0  0  0  0  0  0
   -1.3916    0.8094   -0.8151 H   0  0  0  0  0  0  0  0  0  0  0  0
    0.0224   -1.3194    0.9041 H   0  0  0  0  0  0  0  0  0  0  0  0
    0.7949   -0.1525   -0.1257 H   0  0  0  0  0  0  0  0  0  0  0  0
   -0.1630   -1.3543   -0.8447 H   0  0  0  0  0  0  0  0  0  0  0  0
  1  2  1  0  0  0  0
  1  5  1  0  0  0  0
  2  8  1  0  0  0  0
  3  1  1  0  0  0  0
  4  1  1  0  0  0  0
  6  2  1  0  0  0  0
  6 10  1  0  0  0  0
  7  2  1  0  0  0  0
  9  6  1  0  0  0  0
  9 12  1  0  0  0  0
 11  6  1  0  0  0  0
 13  9  1  0  0  0  0
 14  9  1  0  0  0  0
M  END
$$$$
