butane_opt
 OpenBabel08242015413D

 14 13  0  0  0  0  0  0  0  0999 V2000
   -3.9481    0.2722   -0.0189 C   0  0  0  0  0  0  0  0  0  0  0  0
   -2.6599   -0.6220    0.0692 C   0  0  0  0  0  0  0  0  0  0  0  0
   -4.8292   -0.3322   -0.0870 H   0  0  0  0  0  0  0  0  0  0  0  0
   -3.9717    0.8743   -0.9268 H   0  0  0  0  0  0  0  0  0  0  0  0
   -3.9814    0.9543    0.8759 H   0  0  0  0  0  0  0  0  0  0  0  0
   -1.4070    0.1648    0.0535 C   0  0  0  0  0  0  0  0  0  0  0  0
   -2.6762   -1.2875   -0.8098 H   0  0  0  0  0  0  0  0  0  0  0  0
   -2.7274   -1.3038    0.9887 H   0  0  0  0  0  0  0  0  0  0  0  0
   -0.1874   -0.6719   -0.0054 C   0  0  0  0  0  0  0  0  0  0  0  0
   -1.2619    0.9396    1.0127 H   0  0  0  0  0  0  0  0  0  0  0  0
   -1.4914    0.7239   -0.7920 H   0  0  0  0  0  0  0  0  0  0  0  0
   -0.1014   -1.3997    1.0032 H   0  0  0  0  0  0  0  0  0  0  0  0
    0.6887   -0.1223   -0.2147 H   0  0  0  0  0  0  0  0  0  0  0  0
   -0.2428   -1.2287   -0.7803 H   0  0  0  0  0  0  0  0  0  0  0  0
  1  2  1  0  0  0  0
  1  5  1  0  0  0  0
  2  8  1  0  0  0  0
  3  1  1  0  0  0  0
  4  1  1  0  0  0  0
  6  2  1  0  0  0  0
  6 10  1  0  0  0  0
  7  2  1  0  0  0  0
  9  6  1  0  0  0  0
  9 12  1  0  0  0  0
 11  6  1  0  0  0  0
 13  9  1  0  0  0  0
 14  9  1  0  0  0  0
M  END
$$$$
