14
butane_opt
C  -3.920302   0.268354  -0.036603
C  -2.705847  -0.636275   0.078333
H  -4.832987  -0.291747   0.043221
H  -3.938277   1.028202  -1.025261
H  -4.002607   0.870408   0.765963
C  -1.414376   0.177947   0.097409
H  -2.656192  -1.308351  -0.794361
H  -2.701786  -1.281840   0.945777
C  -0.164275  -0.685334  -0.003293
H  -1.365150   0.940166   0.995155
H  -1.442362   0.829293  -0.792960
H  -0.028007  -1.336088   0.844407
H   0.754197  -0.069005  -0.299782
H  -0.351101  -1.345432  -0.883056
