14
butane_opt
C  -3.952483   0.256638   0.028100
C  -2.711438  -0.601976   0.034980
H  -4.898419  -0.347074   0.074930
H  -3.995772   0.860174  -0.851020
H  -3.914357   0.895185   0.902130
C  -1.404664   0.189416  -0.008038
H  -2.718054  -1.289814  -0.825054
H  -2.734424  -1.229074   0.924655
C  -0.136444  -0.695024   0.039821
H  -1.444601   0.818761   0.797666
H  -1.376414   0.908633  -0.938068
H  -0.172587  -1.267657   0.912086
H   0.736015  -0.142556   0.193563
H  -0.042259  -1.480733  -0.898044
