butane_opt
 OpenBabel08242015413D

 14 13  0  0  0  0  0  0  0  0999 V2000
   -3.9578    0.2708   -0.0372 C   0  0  0  0  0  0  0  0  0  0  0  0
   -2.7010   -0.6233    0.0839 C   0  0  0  0  0  0  0  0  0  0  0  0
   -4.8717   -0.2928   -0.0037 H   0  0  0  0  0  0  0  0  0  0  0  0
   -4.0550    0.9055   -0.9302 H   0  0  0  0  0  0  0  0  0  0  0  0
   -4.0639    0.9602    0.7753 H   0  0  0  0  0  0  0  0  0  0  0  0
   -1.3939    0.1696    0.0912 C   0  0  0  0  0  0  0  0  0  0  0  0
   -2.6522   -1.3494   -0.7948 H   0  0  0  0  0  0  0  0  0  0  0  0
   -2.7996   -1.2245    0.9731 H   0  0  0  0  0  0  0  0  0  0  0  0
   -0.1407   -0.6902   -0.0192 C   0  0  0  0  0  0  0  0  0  0  0  0
   -1.3606    0.8524    0.9582 H   0  0  0  0  0  0  0  0  0  0  0  0
   -1.3646    0.8000   -0.8279 H   0  0  0  0  0  0  0  0  0  0  0  0
    0.0276   -1.3631    0.8889 H   0  0  0  0  0  0  0  0  0  0  0  0
    0.7775   -0.0620   -0.2067 H   0  0  0  0  0  0  0  0  0  0  0  0
   -0.3310   -1.2175   -0.8001 H   0  0  0  0  0  0  0  0  0  0  0  0
  1  3  1  0  0  0  0
  1  2  1  0  0  0  0
  1  5  1  0  0  0  0
  2  6  1  0  0  0  0
  2  8  1  0  0  0  0
  4  1  1  0  0  0  0
  6 10  1  0  0  0  0
  7  2  1  0  0  0  0
  9  6  1  0  0  0  0
  9 12  1  0  0  0  0
 11  6  1  0  0  0  0
 13  9  1  0  0  0  0
 14  9  1  0  0  0  0
M  END
$$$$
