butane_opt
 OpenBabel08242015413D

 14 13  0  0  0  0  0  0  0  0999 V2000
   -3.9400    0.2537   -0.0125 C   0  0  0  0  0  0  0  0  0  0  0  0
   -2.7223   -0.6170    0.0625 C   0  0  0  0  0  0  0  0  0  0  0  0
   -4.8090   -0.2721    0.1156 H   0  0  0  0  0  0  0  0  0  0  0  0
   -4.0666    0.9703   -1.0054 H   0  0  0  0  0  0  0  0  0  0  0  0
   -3.9946    0.7739    0.7576 H   0  0  0  0  0  0  0  0  0  0  0  0
   -1.3977    0.2043    0.0583 C   0  0  0  0  0  0  0  0  0  0  0  0
   -2.6827   -1.2638   -0.7407 H   0  0  0  0  0  0  0  0  0  0  0  0
   -2.7518   -1.1986    0.9532 H   0  0  0  0  0  0  0  0  0  0  0  0
   -0.1454   -0.7047   -0.0169 C   0  0  0  0  0  0  0  0  0  0  0  0
   -1.3760    0.9514    0.9545 H   0  0  0  0  0  0  0  0  0  0  0  0
   -1.3790    0.7781   -0.7813 H   0  0  0  0  0  0  0  0  0  0  0  0
   -0.1104   -1.3300    0.8798 H   0  0  0  0  0  0  0  0  0  0  0  0
    0.7620   -0.1572    0.0317 H   0  0  0  0  0  0  0  0  0  0  0  0
   -0.1397   -1.3597   -0.8360 H   0  0  0  0  0  0  0  0  0  0  0  0
  1  2  1  0  0  0  0
  1  3  1  0  0  0  0
  1  5  1  0  0  0  0
  2  8  1  0  0  0  0
  4  1  1  0  0  0  0
  6  2  1  0  0  0  0
  6 10  1  0  0  0  0
  7  2  1  0  0  0  0
  9 13  1  0  0  0  0
  9  6  1  0  0  0  0
  9 12  1  0  0  0  0
 11  6  1  0  0  0  0
 14  9  1  0  0  0  0
M  END
$$$$
