butane_opt
 OpenBabel08242015413D

 14 13  0  0  0  0  0  0  0  0999 V2000
   -3.9441    0.2980    0.0285 C   0  0  0  0  0  0  0  0  0  0  0  0
   -2.6919   -0.6400    0.0442 C   0  0  0  0  0  0  0  0  0  0  0  0
   -4.8696   -0.2696   -0.2264 H   0  0  0  0  0  0  0  0  0  0  0  0
   -3.8811    0.6801   -0.7061 H   0  0  0  0  0  0  0  0  0  0  0  0
   -4.0298    1.1616    0.9987 H   0  0  0  0  0  0  0  0  0  0  0  0
   -1.3937    0.1545   -0.0202 C   0  0  0  0  0  0  0  0  0  0  0  0
   -2.7897   -1.3125   -0.7995 H   0  0  0  0  0  0  0  0  0  0  0  0
   -2.6929   -1.2885    0.9890 H   0  0  0  0  0  0  0  0  0  0  0  0
   -0.1759   -0.6797    0.0324 C   0  0  0  0  0  0  0  0  0  0  0  0
   -1.3554    0.7895    0.7915 H   0  0  0  0  0  0  0  0  0  0  0  0
   -1.4224    0.7449   -0.8835 H   0  0  0  0  0  0  0  0  0  0  0  0
   -0.2042   -1.3985    0.9610 H   0  0  0  0  0  0  0  0  0  0  0  0
    0.8077    0.0174    0.0335 H   0  0  0  0  0  0  0  0  0  0  0  0
   -0.1405   -1.1758   -0.7038 H   0  0  0  0  0  0  0  0  0  0  0  0
  1  2  1  0  0  0  0
  1  5  1  0  0  0  0
  2  8  1  0  0  0  0
  3  1  1  0  0  0  0
  4  1  1  0  0  0  0
  6  9  1  0  0  0  0
  6  2  1  0  0  0  0
  6 10  1  0  0  0  0
  7  2  1  0  0  0  0
  9 13  1  0  0  0  0
  9 12  1  0  0  0  0
 11  6  1  0  0  0  0
 14  9  1  0  0  0  0
M  END
$$$$
