butane_opt
 OpenBabel08242015413D

 14 13  0  0  0  0  0  0  0  0999 V2000
   -3.9184    0.2391   -0.0449 C   0  0  0  0  0  0  0  0  0  0  0  0
   -2.6864   -0.5983    0.1083 C   0  0  0  0  0  0  0  0  0  0  0  0
   -4.8327   -0.3127    0.0412 H   0  0  0  0  0  0  0  0  0  0  0  0
   -3.9959    0.9187   -0.9858 H   0  0  0  0  0  0  0  0  0  0  0  0
   -3.9153    0.8779    0.7788 H   0  0  0  0  0  0  0  0  0  0  0  0
   -1.4165    0.1938    0.0654 C   0  0  0  0  0  0  0  0  0  0  0  0
   -2.6551   -1.2060   -0.7014 H   0  0  0  0  0  0  0  0  0  0  0  0
   -2.7971   -1.2682    1.0326 H   0  0  0  0  0  0  0  0  0  0  0  0
   -0.1681   -0.7047   -0.0250 C   0  0  0  0  0  0  0  0  0  0  0  0
   -1.4437    0.9370    0.8969 H   0  0  0  0  0  0  0  0  0  0  0  0
   -1.4656    0.7856   -0.7860 H   0  0  0  0  0  0  0  0  0  0  0  0
   -0.1445   -1.1624    0.7763 H   0  0  0  0  0  0  0  0  0  0  0  0
    0.7098   -0.1820    0.0780 H   0  0  0  0  0  0  0  0  0  0  0  0
   -0.1891   -1.4325   -0.9507 H   0  0  0  0  0  0  0  0  0  0  0  0
  1  3  1  0  0  0  0
  1  2  1  0  0  0  0
  1  5  1  0  0  0  0
  2  8  1  0  0  0  0
  4  1  1  0  0  0  0
  6  2  1  0  0  0  0
  6 10  1  0  0  0  0
  7  2  1  0  0  0  0
  9  6  1  0  0  0  0
  9 13  1  0  0  0  0
  9 12  1  0  0  0  0
 11  6  1  0  0  0  0
 14  9  1  0  0  0  0
M  END
$$$$
