butane_opt
 OpenBabel08242015413D

 14 13  0  0  0  0  0  0  0  0999 V2000
   -3.9112    0.2375   -0.0388 C   0  0  0  0  0  0  0  0  0  0  0  0
   -2.7113   -0.5695    0.0693 C   0  0  0  0  0  0  0  0  0  0  0  0
   -4.8788   -0.4122    0.0712 H   0  0  0  0  0  0  0  0  0  0  0  0
   -3.8977    0.9154   -0.9611 H   0  0  0  0  0  0  0  0  0  0  0  0
   -3.9821    0.8602    0.8063 H   0  0  0  0  0  0  0  0  0  0  0  0
   -1.4188    0.1901    0.0856 C   0  0  0  0  0  0  0  0  0  0  0  0
   -2.6510   -1.2101   -0.7649 H   0  0  0  0  0  0  0  0  0  0  0  0
   -2.7658   -1.2531    0.9937 H   0  0  0  0  0  0  0  0  0  0  0  0
   -0.1658   -0.7223   -0.0135 C   0  0  0  0  0  0  0  0  0  0  0  0
   -1.4174    1.0145    1.0042 H   0  0  0  0  0  0  0  0  0  0  0  0
   -1.3660    0.7894   -0.7435 H   0  0  0  0  0  0  0  0  0  0  0  0
    0.0053   -1.4171    0.9424 H   0  0  0  0  0  0  0  0  0  0  0  0
    0.7420   -0.1143   -0.2633 H   0  0  0  0  0  0  0  0  0  0  0  0
   -0.3037   -1.2927   -0.8740 H   0  0  0  0  0  0  0  0  0  0  0  0
  1  2  1  0  0  0  0
  1  3  1  0  0  0  0
  1  5  1  0  0  0  0
  2  6  1  0  0  0  0
  2  8  1  0  0  0  0
  4  1  1  0  0  0  0
  6 10  1  0  0  0  0
  7  2  1  0  0  0  0
  9  6  1  0  0  0  0
  9 12  1  0  0  0  0
 11  6  1  0  0  0  0
 13  9  1  0  0  0  0
 14  9  1  0  0  0  0
M  END
$$$$
