butane_opt
 OpenBabel08242015413D

 14 13  0  0  0  0  0  0  0  0999 V2000
   -3.9661    0.2567   -0.0143 C   0  0  0  0  0  0  0  0  0  0  0  0
   -2.7053   -0.6177    0.0764 C   0  0  0  0  0  0  0  0  0  0  0  0
   -4.8491   -0.2868    0.1718 H   0  0  0  0  0  0  0  0  0  0  0  0
   -4.0450    1.1099   -1.0844 H   0  0  0  0  0  0  0  0  0  0  0  0
   -4.0021    0.7412    0.6559 H   0  0  0  0  0  0  0  0  0  0  0  0
   -1.3907    0.1780    0.0596 C   0  0  0  0  0  0  0  0  0  0  0  0
   -2.7257   -1.2484   -0.7561 H   0  0  0  0  0  0  0  0  0  0  0  0
   -2.6961   -1.2378    1.0062 H   0  0  0  0  0  0  0  0  0  0  0  0
   -0.1268   -0.6921   -0.0176 C   0  0  0  0  0  0  0  0  0  0  0  0
   -1.3881    0.9139    0.9432 H   0  0  0  0  0  0  0  0  0  0  0  0
   -1.4444    0.7328   -0.7666 H   0  0  0  0  0  0  0  0  0  0  0  0
   -0.1991   -1.1239    0.7772 H   0  0  0  0  0  0  0  0  0  0  0  0
    0.7425   -0.1292    0.1479 H   0  0  0  0  0  0  0  0  0  0  0  0
   -0.1336   -1.4507   -0.9461 H   0  0  0  0  0  0  0  0  0  0  0  0
  1  2  1  0  0  0  0
  1  3  1  0  0  0  0
  1  5  1  0  0  0  0
  2  8  1  0  0  0  0
  4  1  1  0  0  0  0
  6  2  1  0  0  0  0
  6 10  1  0  0  0  0
  7  2  1  0  0  0  0
  9  6  1  0  0  0  0
  9 13  1  0  0  0  0
  9 12  1  0  0  0  0
 11  6  1  0  0  0  0
 14  9  1  0  0  0  0
M  END
$$$$
