butane_opt
 OpenBabel08242015413D

 14 13  0  0  0  0  0  0  0  0999 V2000
   -3.9545    0.2507   -0.0409 C   0  0  0  0  0  0  0  0  0  0  0  0
   -2.7247   -0.6009    0.1117 C   0  0  0  0  0  0  0  0  0  0  0  0
   -4.8916   -0.3982   -0.0659 H   0  0  0  0  0  0  0  0  0  0  0  0
   -3.8737    0.8960   -1.0254 H   0  0  0  0  0  0  0  0  0  0  0  0
   -4.0126    0.8760    0.7654 H   0  0  0  0  0  0  0  0  0  0  0  0
   -1.4081    0.2218    0.0783 C   0  0  0  0  0  0  0  0  0  0  0  0
   -2.7277   -1.3085   -0.7637 H   0  0  0  0  0  0  0  0  0  0  0  0
   -2.6876   -1.2220    0.9803 H   0  0  0  0  0  0  0  0  0  0  0  0
   -0.1322   -0.7158   -0.0247 C   0  0  0  0  0  0  0  0  0  0  0  0
   -1.3548    0.9029    0.9371 H   0  0  0  0  0  0  0  0  0  0  0  0
   -1.5009    0.7734   -0.7050 H   0  0  0  0  0  0  0  0  0  0  0  0
    0.0519   -1.3696    0.8357 H   0  0  0  0  0  0  0  0  0  0  0  0
    0.7786   -0.1159   -0.1504 H   0  0  0  0  0  0  0  0  0  0  0  0
   -0.1685   -1.3681   -0.8649 H   0  0  0  0  0  0  0  0  0  0  0  0
  1  2  1  0  0  0  0
  1  5  1  0  0  0  0
  2  8  1  0  0  0  0
  3  1  1  0  0  0  0
  4  1  1  0  0  0  0
  6  2  1  0  0  0  0
  6 10  1  0  0  0  0
  7  2  1  0  0  0  0
  9  6  1  0  0  0  0
  9 12  1  0  0  0  0
 11  6  1  0  0  0  0
 13  9  1  0  0  0  0
 14  9  1  0  0  0  0
M  END
$$$$
