14
butane_opt
C  -3.941474   0.282310   0.060760
C  -2.695951  -0.610345  -0.022523
H  -4.885425  -0.346523   0.080316
H  -3.991954   0.814322  -0.826506
H  -3.919583   0.896867   0.876533
C  -1.395493   0.168139   0.001807
H  -2.643041  -1.339115  -0.882794
H  -2.669251  -1.185117   0.784773
C  -0.180268  -0.687914   0.074021
H  -1.419510   0.775818   0.839811
H  -1.324386   0.835368  -0.909714
H  -0.133279  -1.444826   1.033741
H   0.769554  -0.075282  -0.203767
H  -0.251620  -1.218838  -0.708546
