14
butane_opt
C  -3.961333   0.284398  -0.004579
C  -2.713600  -0.627783   0.082447
H  -4.831504  -0.225106  -0.000367
H  -4.014139   1.011799  -0.969833
H  -4.034345   0.811063   0.762324
C  -1.391084   0.153155   0.040703
H  -2.664265  -1.266168  -0.758205
H  -2.792898  -1.334002   1.004532
C  -0.137608  -0.673231   0.004010
H  -1.364069   0.790619   0.906758
H  -1.322316   0.809366  -0.911133
H  -0.170949  -1.076836   0.771555
H   0.799160  -0.042757   0.139382
H  -0.197563  -1.578230  -1.012880
