14
butane_opt
C  -3.943749   0.274196   0.040845
C  -2.702577  -0.627880   0.000917
H  -4.826438  -0.281399   0.151284
H  -4.028256   0.901683  -0.829185
H  -3.872928   0.935371   0.899138
C  -1.397031   0.171134  -0.012583
H  -2.733838  -1.338732  -0.886267
H  -2.664997  -1.185264   0.850411
C  -0.168073  -0.688269   0.068360
H  -1.409756   0.793779   0.807348
H  -1.383802   0.859604  -0.919716
H  -0.193877  -1.311287   0.978371
H   0.789710  -0.049860   0.006797
H  -0.171912  -1.339690  -0.791071
