butane_opt
 OpenBabel08242015413D

 14 13  0  0  0  0  0  0  0  0999 V2000
   -3.9719    0.2695    0.0726 C   0  0  0  0  0  0  0  0  0  0  0  0
   -2.6906   -0.6225   -0.0404 C   0  0  0  0  0  0  0  0  0  0  0  0
   -4.8188   -0.2312    0.3357 H   0  0  0  0  0  0  0  0  0  0  0  0
   -4.1190    1.0288   -0.8915 H   0  0  0  0  0  0  0  0  0  0  0  0
   -3.8932    0.8521    0.9214 H   0  0  0  0  0  0  0  0  0  0  0  0
   -1.3934    0.1571   -0.0274 C   0  0  0  0  0  0  0  0  0  0  0  0
   -2.7895   -1.4614   -0.9953 H   0  0  0  0  0  0  0  0  0  0  0  0
   -2.5758   -1.1663    0.7697 H   0  0  0  0  0  0  0  0  0  0  0  0
   -0.1571   -0.6731    0.0858 C   0  0  0  0  0  0  0  0  0  0  0  0
   -1.4106    0.8071    0.7867 H   0  0  0  0  0  0  0  0  0  0  0  0
   -1.3930    0.8445   -0.9968 H   0  0  0  0  0  0  0  0  0  0  0  0
   -0.2856   -1.3600    1.0552 H   0  0  0  0  0  0  0  0  0  0  0  0
    0.8680   -0.0080    0.0959 H   0  0  0  0  0  0  0  0  0  0  0  0
   -0.0685   -1.3191   -0.7338 H   0  0  0  0  0  0  0  0  0  0  0  0
  1  3  1  0  0  0  0
  1  5  1  0  0  0  0
  2  6  1  0  0  0  0
  2  1  1  0  0  0  0
  2  8  1  0  0  0  0
  4  1  1  0  0  0  0
  6  9  1  0  0  0  0
  6 10  1  0  0  0  0
  7  2  1  0  0  0  0
  9 13  1  0  0  0  0
  9 12  1  0  0  0  0
 11  6  1  0  0  0  0
 14  9  1  0  0  0  0
M  END
$$$$
