14
butane_opt
C  -3.971883   0.269484   0.072584
C  -2.690645  -0.622512  -0.040404
H  -4.818821  -0.231158   0.335713
H  -4.118988   1.028827  -0.891527
H  -3.893204   0.852069   0.921406
C  -1.393364   0.157134  -0.027420
H  -2.789495  -1.461409  -0.995328
H  -2.575811  -1.166304   0.769709
C  -0.157053  -0.673067   0.085774
H  -1.410614   0.807109   0.786707
H  -1.393017   0.844526  -0.996793
H  -0.285614  -1.360016   1.055155
H   0.868013  -0.008018   0.095871
H  -0.068538  -1.319065  -0.733766
