butane_opt
 OpenBabel08242015413D

 14 13  0  0  0  0  0  0  0  0999 V2000
   -3.9428    0.2484   -0.0003 C   0  0  0  0  0  0  0  0  0  0  0  0
   -2.7039   -0.6036    0.0655 C   0  0  0  0  0  0  0  0  0  0  0  0
   -4.8531   -0.3385   -0.0819 H   0  0  0  0  0  0  0  0  0  0  0  0
   -3.9610    0.8120   -0.8641 H   0  0  0  0  0  0  0  0  0  0  0  0
   -3.9920    1.0173    0.9249 H   0  0  0  0  0  0  0  0  0  0  0  0
   -1.4024    0.1923    0.0164 C   0  0  0  0  0  0  0  0  0  0  0  0
   -2.7211   -1.2609   -0.7683 H   0  0  0  0  0  0  0  0  0  0  0  0
   -2.7556   -1.2749    0.9948 H   0  0  0  0  0  0  0  0  0  0  0  0
   -0.1457   -0.6992    0.0143 C   0  0  0  0  0  0  0  0  0  0  0  0
   -1.4193    0.8828    0.8743 H   0  0  0  0  0  0  0  0  0  0  0  0
   -1.4390    0.8650   -0.8744 H   0  0  0  0  0  0  0  0  0  0  0  0
   -0.1275   -1.3018    0.8947 H   0  0  0  0  0  0  0  0  0  0  0  0
    0.7198   -0.1445    0.0201 H   0  0  0  0  0  0  0  0  0  0  0  0
   -0.1252   -1.3918   -0.8299 H   0  0  0  0  0  0  0  0  0  0  0  0
  1  2  1  0  0  0  0
  1  5  1  0  0  0  0
  2  8  1  0  0  0  0
  3  1  1  0  0  0  0
  4  1  1  0  0  0  0
  6  2  1  0  0  0  0
  6 10  1  0  0  0  0
  7  2  1  0  0  0  0
  9  6  1  0  0  0  0
  9 13  1  0  0  0  0
  9 12  1  0  0  0  0
 11  6  1  0  0  0  0
 14  9  1  0  0  0  0
M  END
$$$$
