butane_opt
 OpenBabel08242015413D

 14 13  0  0  0  0  0  0  0  0999 V2000
   -3.9385    0.2846    0.0815 C   0  0  0  0  0  0  0  0  0  0  0  0
   -2.6768   -0.6267   -0.0479 C   0  0  0  0  0  0  0  0  0  0  0  0
   -4.8137   -0.2796    0.2276 H   0  0  0  0  0  0  0  0  0  0  0  0
   -4.1325    0.9377   -0.8459 H   0  0  0  0  0  0  0  0  0  0  0  0
   -3.8356    0.8264    0.9114 H   0  0  0  0  0  0  0  0  0  0  0  0
   -1.3991    0.1471   -0.0302 C   0  0  0  0  0  0  0  0  0  0  0  0
   -2.7661   -1.3415   -0.9305 H   0  0  0  0  0  0  0  0  0  0  0  0
   -2.6693   -1.1325    0.8010 H   0  0  0  0  0  0  0  0  0  0  0  0
   -0.1752   -0.6773    0.0892 C   0  0  0  0  0  0  0  0  0  0  0  0
   -1.5251    0.7674    0.7805 H   0  0  0  0  0  0  0  0  0  0  0  0
   -1.2802    0.8670   -0.9887 H   0  0  0  0  0  0  0  0  0  0  0  0
   -0.2771   -1.3121    1.0051 H   0  0  0  0  0  0  0  0  0  0  0  0
    0.7827   -0.0528    0.0875 H   0  0  0  0  0  0  0  0  0  0  0  0
   -0.2324   -1.2756   -0.7342 H   0  0  0  0  0  0  0  0  0  0  0  0
  1  3  1  0  0  0  0
  1  5  1  0  0  0  0
  2  6  1  0  0  0  0
  2  1  1  0  0  0  0
  2  8  1  0  0  0  0
  4  1  1  0  0  0  0
  6  9  1  0  0  0  0
  6 10  1  0  0  0  0
  7  2  1  0  0  0  0
  9 12  1  0  0  0  0
 11  6  1  0  0  0  0
 13  9  1  0  0  0  0
 14  9  1  0  0  0  0
M  END
$$$$
