butane_opt
 OpenBabel08242015413D

 14 13  0  0  0  0  0  0  0  0999 V2000
   -3.9563    0.2460    0.0357 C   0  0  0  0  0  0  0  0  0  0  0  0
   -2.7248   -0.5970    0.0439 C   0  0  0  0  0  0  0  0  0  0  0  0
   -4.8428   -0.3488   -0.1437 H   0  0  0  0  0  0  0  0  0  0  0  0
   -3.8545    0.7461   -0.8081 H   0  0  0  0  0  0  0  0  0  0  0  0
   -4.0406    1.0449    1.0148 H   0  0  0  0  0  0  0  0  0  0  0  0
   -1.3979    0.2077   -0.0224 C   0  0  0  0  0  0  0  0  0  0  0  0
   -2.7092   -1.3419   -0.8675 H   0  0  0  0  0  0  0  0  0  0  0  0
   -2.7239   -1.1969    0.9278 H   0  0  0  0  0  0  0  0  0  0  0  0
   -0.1395   -0.7086    0.0514 C   0  0  0  0  0  0  0  0  0  0  0  0
   -1.3987    0.8281    0.8140 H   0  0  0  0  0  0  0  0  0  0  0  0
   -1.3296    0.8996   -0.9437 H   0  0  0  0  0  0  0  0  0  0  0  0
    0.0047   -1.3690    0.9306 H   0  0  0  0  0  0  0  0  0  0  0  0
    0.6676   -0.2040   -0.0112 H   0  0  0  0  0  0  0  0  0  0  0  0
   -0.1588   -1.3148   -0.7518 H   0  0  0  0  0  0  0  0  0  0  0  0
  1  2  1  0  0  0  0
  1  5  1  0  0  0  0
  2  8  1  0  0  0  0
  3  1  1  0  0  0  0
  4  1  1  0  0  0  0
  6  2  1  0  0  0  0
  6  9  1  0  0  0  0
  6 10  1  0  0  0  0
  7  2  1  0  0  0  0
  9 12  1  0  0  0  0
 11  6  1  0  0  0  0
 13  9  1  0  0  0  0
 14  9  1  0  0  0  0
M  END
$$$$
