butane_opt
 OpenBabel08242015413D

 14 13  0  0  0  0  0  0  0  0999 V2000
   -3.9159    0.2424    0.0489 C   0  0  0  0  0  0  0  0  0  0  0  0
   -2.7007   -0.6034    0.0075 C   0  0  0  0  0  0  0  0  0  0  0  0
   -4.8528   -0.4053    0.1634 H   0  0  0  0  0  0  0  0  0  0  0  0
   -3.9748    0.8536   -0.8029 H   0  0  0  0  0  0  0  0  0  0  0  0
   -3.9199    0.9989    0.9691 H   0  0  0  0  0  0  0  0  0  0  0  0
   -1.4092    0.2197   -0.0534 C   0  0  0  0  0  0  0  0  0  0  0  0
   -2.8278   -1.2192   -0.8334 H   0  0  0  0  0  0  0  0  0  0  0  0
   -2.7645   -1.2385    0.8854 H   0  0  0  0  0  0  0  0  0  0  0  0
   -0.1572   -0.7255    0.0785 C   0  0  0  0  0  0  0  0  0  0  0  0
   -1.5408    0.8693    0.7527 H   0  0  0  0  0  0  0  0  0  0  0  0
   -1.3140    0.8911   -0.9510 H   0  0  0  0  0  0  0  0  0  0  0  0
   -0.2149   -1.1944    0.9169 H   0  0  0  0  0  0  0  0  0  0  0  0
    0.6934   -0.1520    0.1962 H   0  0  0  0  0  0  0  0  0  0  0  0
   -0.0870   -1.4969   -0.8438 H   0  0  0  0  0  0  0  0  0  0  0  0
  1  3  1  0  0  0  0
  1  5  1  0  0  0  0
  2  1  1  0  0  0  0
  2  8  1  0  0  0  0
  4  1  1  0  0  0  0
  6  2  1  0  0  0  0
  6  9  1  0  0  0  0
  6 10  1  0  0  0  0
  7  2  1  0  0  0  0
  9 13  1  0  0  0  0
  9 12  1  0  0  0  0
 11  6  1  0  0  0  0
 14  9  1  0  0  0  0
M  END
$$$$
