14
butane_opt
C  -3.915925   0.242444   0.048900
C  -2.700689  -0.603440   0.007465
H  -4.852759  -0.405292   0.163401
H  -3.974830   0.853563  -0.802914
H  -3.919878   0.998931   0.969109
C  -1.409201   0.219670  -0.053415
H  -2.827848  -1.219250  -0.833423
H  -2.764502  -1.238474   0.885415
C  -0.157173  -0.725542   0.078529
H  -1.540791   0.869300   0.752702
H  -1.313978   0.891059  -0.950998
H  -0.214855  -1.194394   0.916930
H   0.693380  -0.152046   0.196206
H  -0.087006  -1.496941  -0.843832
