butane_opt
 OpenBabel08242015413D

 14 13  0  0  0  0  0  0  0  0999 V2000
   -3.9637    0.2957    0.0533 C   0  0  0  0  0  0  0  0  0  0  0  0
   -2.6912   -0.6421    0.0260 C   0  0  0  0  0  0  0  0  0  0  0  0
   -4.8423   -0.2886   -0.0226 H   0  0  0  0  0  0  0  0  0  0  0  0
   -4.0461    0.8272   -0.8071 H   0  0  0  0  0  0  0  0  0  0  0  0
   -4.0602    0.9821    0.9544 H   0  0  0  0  0  0  0  0  0  0  0  0
   -1.3790    0.1646   -0.0342 C   0  0  0  0  0  0  0  0  0  0  0  0
   -2.7597   -1.3695   -0.8658 H   0  0  0  0  0  0  0  0  0  0  0  0
   -2.7111   -1.2724    0.9084 H   0  0  0  0  0  0  0  0  0  0  0  0
   -0.1590   -0.6682    0.0629 C   0  0  0  0  0  0  0  0  0  0  0  0
   -1.3068    0.7157    0.7415 H   0  0  0  0  0  0  0  0  0  0  0  0
   -1.4028    0.8414   -1.0253 H   0  0  0  0  0  0  0  0  0  0  0  0
   -0.2971   -1.1701    0.9037 H   0  0  0  0  0  0  0  0  0  0  0  0
    0.7119   -0.1093    0.1871 H   0  0  0  0  0  0  0  0  0  0  0  0
    0.0009   -1.4205   -0.8307 H   0  0  0  0  0  0  0  0  0  0  0  0
  1  5  1  0  0  0  0
  2  1  1  0  0  0  0
  2  8  1  0  0  0  0
  3  1  1  0  0  0  0
  4  1  1  0  0  0  0
  6  2  1  0  0  0  0
  6  9  1  0  0  0  0
  6 10  1  0  0  0  0
  7  2  1  0  0  0  0
  9 13  1  0  0  0  0
  9 12  1  0  0  0  0
 11  6  1  0  0  0  0
 14  9  1  0  0  0  0
M  END
$$$$
