14
butane_opt
C  -3.963734   0.295720   0.053255
C  -2.691181  -0.642054   0.025974
H  -4.842306  -0.288585  -0.022551
H  -4.046056   0.827225  -0.807132
H  -4.060198   0.982097   0.954419
C  -1.378951   0.164591  -0.034210
H  -2.759699  -1.369507  -0.865801
H  -2.711111  -1.272439   0.908373
C  -0.158987  -0.668177   0.062883
H  -1.306794   0.715678   0.741495
H  -1.402822   0.841440  -1.025317
H  -0.297148  -1.170119   0.903709
H   0.711878  -0.109290   0.187114
H   0.000913  -1.420484  -0.830693
