butane_opt
 OpenBabel08242015413D

 14 13  0  0  0  0  0  0  0  0999 V2000
   -3.9493    0.2614    0.0833 C   0  0  0  0  0  0  0  0  0  0  0  0
   -2.7318   -0.5999   -0.0204 C   0  0  0  0  0  0  0  0  0  0  0  0
   -4.8862   -0.3800    0.0970 H   0  0  0  0  0  0  0  0  0  0  0  0
   -4.0079    0.7846   -0.7234 H   0  0  0  0  0  0  0  0  0  0  0  0
   -3.8531    0.9179    0.9334 H   0  0  0  0  0  0  0  0  0  0  0  0
   -1.3981    0.2083   -0.0750 C   0  0  0  0  0  0  0  0  0  0  0  0
   -2.8024   -1.2414   -0.8585 H   0  0  0  0  0  0  0  0  0  0  0  0
   -2.7100   -1.2741    0.8921 H   0  0  0  0  0  0  0  0  0  0  0  0
   -0.1222   -0.7136    0.0963 C   0  0  0  0  0  0  0  0  0  0  0  0
   -1.5558    0.8128    0.7413 H   0  0  0  0  0  0  0  0  0  0  0  0
   -1.3027    0.8794   -1.0111 H   0  0  0  0  0  0  0  0  0  0  0  0
   -0.2720   -1.2375    0.9494 H   0  0  0  0  0  0  0  0  0  0  0  0
    0.7265   -0.1477    0.2616 H   0  0  0  0  0  0  0  0  0  0  0  0
    0.0561   -1.4758   -0.8736 H   0  0  0  0  0  0  0  0  0  0  0  0
  1  3  1  0  0  0  0
  1  5  1  0  0  0  0
  2  1  1  0  0  0  0
  2  8  1  0  0  0  0
  4  1  1  0  0  0  0
  6  2  1  0  0  0  0
  6  9  1  0  0  0  0
  6 10  1  0  0  0  0
  7  2  1  0  0  0  0
  9 13  1  0  0  0  0
  9 12  1  0  0  0  0
 11  6  1  0  0  0  0
 14  9  1  0  0  0  0
M  END
$$$$
