14
butane_opt
C  -3.938538   0.284602   0.081487
C  -2.676812  -0.626691  -0.047909
H  -4.813694  -0.279553   0.227645
H  -4.132524   0.937738  -0.845853
H  -3.835612   0.826387   0.911406
C  -1.399110   0.147074  -0.030163
H  -2.766063  -1.341490  -0.930458
H  -2.669269  -1.132527   0.800960
C  -0.175170  -0.677297   0.089216
H  -1.525143   0.767366   0.780457
H  -1.280191   0.867002  -0.988679
H  -0.277133  -1.312142   1.005085
H   0.782712  -0.052759   0.087487
H  -0.232434  -1.275623  -0.734202
