butane_opt
 OpenBabel08242015413D

 14 13  0  0  0  0  0  0  0  0999 V2000
   -3.9276    0.2527   -0.0290 C   0  0  0  0  0  0  0  0  0  0  0  0
   -2.7097   -0.5761    0.1236 C   0  0  0  0  0  0  0  0  0  0  0  0
   -4.9343   -0.3847   -0.1916 H   0  0  0  0  0  0  0  0  0  0  0  0
   -3.7365    0.8145   -0.9505 H   0  0  0  0  0  0  0  0  0  0  0  0
   -4.0467    0.8671    0.7692 H   0  0  0  0  0  0  0  0  0  0  0  0
   -1.4027    0.1939    0.0648 C   0  0  0  0  0  0  0  0  0  0  0  0
   -2.7246   -1.2151   -0.7393 H   0  0  0  0  0  0  0  0  0  0  0  0
   -2.7701   -1.2706    1.0384 H   0  0  0  0  0  0  0  0  0  0  0  0
   -0.1710   -0.7127   -0.0364 C   0  0  0  0  0  0  0  0  0  0  0  0
   -1.4128    0.8979    0.9297 H   0  0  0  0  0  0  0  0  0  0  0  0
   -1.4408    0.7612   -0.7901 H   0  0  0  0  0  0  0  0  0  0  0  0
   -0.0134   -1.2917    0.8066 H   0  0  0  0  0  0  0  0  0  0  0  0
    0.7133   -0.1437   -0.0090 H   0  0  0  0  0  0  0  0  0  0  0  0
   -0.1257   -1.4086   -0.9036 H   0  0  0  0  0  0  0  0  0  0  0  0
  1  2  1  0  0  0  0
  1  5  1  0  0  0  0
  2  8  1  0  0  0  0
  3  1  1  0  0  0  0
  4  1  1  0  0  0  0
  6  2  1  0  0  0  0
  6 10  1  0  0  0  0
  7  2  1  0  0  0  0
  9 13  1  0  0  0  0
  9  6  1  0  0  0  0
  9 12  1  0  0  0  0
 11  6  1  0  0  0  0
 14  9  1  0  0  0  0
M  END
$$$$
