14
butane_opt
C  -3.931239   0.291305   0.041126
C  -2.703302  -0.630514  -0.014725
H  -4.849192  -0.299367   0.025747
H  -4.021064   0.709392  -0.749727
H  -4.000424   1.097838   1.010948
C  -1.399760   0.139649   0.001731
H  -2.669397  -1.299110  -0.873756
H  -2.641656  -1.231388   0.839520
C  -0.172733  -0.669704   0.058063
H  -1.384849   0.763632   0.824980
H  -1.368678   0.850442  -0.914800
H  -0.132799  -1.467990   1.069662
H   0.778711  -0.059613  -0.168497
H  -0.251400  -1.096187  -0.614340
