butane_opt
 OpenBabel08242015413D

 14 13  0  0  0  0  0  0  0  0999 V2000
   -3.9539    0.2830   -0.0151 C   0  0  0  0  0  0  0  0  0  0  0  0
   -2.7085   -0.6385    0.0684 C   0  0  0  0  0  0  0  0  0  0  0  0
   -4.7411   -0.2223    0.2663 H   0  0  0  0  0  0  0  0  0  0  0  0
   -4.1126    1.0885   -1.0255 H   0  0  0  0  0  0  0  0  0  0  0  0
   -3.9881    0.7176    0.7245 H   0  0  0  0  0  0  0  0  0  0  0  0
   -1.3824    0.1723    0.0474 C   0  0  0  0  0  0  0  0  0  0  0  0
   -2.6674   -1.3758   -0.8068 H   0  0  0  0  0  0  0  0  0  0  0  0
   -2.7068   -1.2104    0.8862 H   0  0  0  0  0  0  0  0  0  0  0  0
   -0.1626   -0.6788   -0.0032 C   0  0  0  0  0  0  0  0  0  0  0  0
   -1.3554    0.8517    0.9186 H   0  0  0  0  0  0  0  0  0  0  0  0
   -1.3513    0.7438   -0.7857 H   0  0  0  0  0  0  0  0  0  0  0  0
   -0.1901   -1.2147    0.8761 H   0  0  0  0  0  0  0  0  0  0  0  0
    0.7849   -0.0715    0.1308 H   0  0  0  0  0  0  0  0  0  0  0  0
   -0.2119   -1.4131   -0.9374 H   0  0  0  0  0  0  0  0  0  0  0  0
  1  2  1  0  0  0  0
  1  3  1  0  0  0  0
  1  5  1  0  0  0  0
  2  8  1  0  0  0  0
  4  1  1  0  0  0  0
  6  2  1  0  0  0  0
  6 10  1  0  0  0  0
  7  2  1  0  0  0  0
  9  6  1  0  0  0  0
  9 13  1  0  0  0  0
  9 12  1  0  0  0  0
 11  6  1  0  0  0  0
 14  9  1  0  0  0  0
M  END
$$$$
