14
butane_opt
C  -3.944032   0.247794   0.001457
C  -2.705886  -0.620043   0.032173
H  -4.897380  -0.334038   0.167483
H  -4.066774   1.044463  -1.001275
H  -3.885367   0.812330   0.812792
C  -1.417900   0.217429   0.040660
H  -2.748303  -1.232527  -0.762219
H  -2.778245  -1.325021   0.994560
C  -0.125956  -0.703625   0.014282
H  -1.500683   0.952467   0.974026
H  -1.345435   0.774628  -0.826493
H  -0.090154  -1.284517   0.876495
H   0.729053  -0.163187   0.024766
H  -0.108259  -1.417970  -0.918289
