butane_opt
 OpenBabel08242015413D

 14 13  0  0  0  0  0  0  0  0999 V2000
   -3.9440    0.2478    0.0015 C   0  0  0  0  0  0  0  0  0  0  0  0
   -2.7059   -0.6200    0.0322 C   0  0  0  0  0  0  0  0  0  0  0  0
   -4.8974   -0.3340    0.1675 H   0  0  0  0  0  0  0  0  0  0  0  0
   -4.0668    1.0445   -1.0013 H   0  0  0  0  0  0  0  0  0  0  0  0
   -3.8854    0.8123    0.8128 H   0  0  0  0  0  0  0  0  0  0  0  0
   -1.4179    0.2174    0.0407 C   0  0  0  0  0  0  0  0  0  0  0  0
   -2.7483   -1.2325   -0.7622 H   0  0  0  0  0  0  0  0  0  0  0  0
   -2.7782   -1.3250    0.9946 H   0  0  0  0  0  0  0  0  0  0  0  0
   -0.1260   -0.7036    0.0143 C   0  0  0  0  0  0  0  0  0  0  0  0
   -1.5007    0.9525    0.9740 H   0  0  0  0  0  0  0  0  0  0  0  0
   -1.3454    0.7746   -0.8265 H   0  0  0  0  0  0  0  0  0  0  0  0
   -0.0902   -1.2845    0.8765 H   0  0  0  0  0  0  0  0  0  0  0  0
    0.7291   -0.1632    0.0248 H   0  0  0  0  0  0  0  0  0  0  0  0
   -0.1083   -1.4180   -0.9183 H   0  0  0  0  0  0  0  0  0  0  0  0
  1  2  1  0  0  0  0
  1  3  1  0  0  0  0
  1  5  1  0  0  0  0
  2  6  1  0  0  0  0
  2  8  1  0  0  0  0
  4  1  1  0  0  0  0
  6 10  1  0  0  0  0
  7  2  1  0  0  0  0
  9 13  1  0  0  0  0
  9  6  1  0  0  0  0
  9 12  1  0  0  0  0
 11  6  1  0  0  0  0
 14  9  1  0  0  0  0
M  END
$$$$
