butane_opt
 OpenBabel08242015413D

 14 13  0  0  0  0  0  0  0  0999 V2000
   -3.9276    0.2704   -0.0243 C   0  0  0  0  0  0  0  0  0  0  0  0
   -2.7043   -0.6050    0.0976 C   0  0  0  0  0  0  0  0  0  0  0  0
   -4.8492   -0.3289   -0.0877 H   0  0  0  0  0  0  0  0  0  0  0  0
   -3.9257    0.9341   -0.9799 H   0  0  0  0  0  0  0  0  0  0  0  0
   -3.9957    0.9142    0.7948 H   0  0  0  0  0  0  0  0  0  0  0  0
   -1.4158    0.1687    0.0663 C   0  0  0  0  0  0  0  0  0  0  0  0
   -2.6717   -1.3234   -0.8380 H   0  0  0  0  0  0  0  0  0  0  0  0
   -2.8089   -1.2635    1.0073 H   0  0  0  0  0  0  0  0  0  0  0  0
   -0.1645   -0.6985   -0.0058 C   0  0  0  0  0  0  0  0  0  0  0  0
   -1.3176    0.8558    0.9285 H   0  0  0  0  0  0  0  0  0  0  0  0
   -1.4118    0.7701   -0.8112 H   0  0  0  0  0  0  0  0  0  0  0  0
   -0.0127   -1.2966    0.8410 H   0  0  0  0  0  0  0  0  0  0  0  0
    0.8055    0.0083   -0.1443 H   0  0  0  0  0  0  0  0  0  0  0  0
   -0.2940   -1.3562   -0.8744 H   0  0  0  0  0  0  0  0  0  0  0  0
  1  2  1  0  0  0  0
  1  5  1  0  0  0  0
  2  8  1  0  0  0  0
  3  1  1  0  0  0  0
  4  1  1  0  0  0  0
  6  2  1  0  0  0  0
  6 10  1  0  0  0  0
  7  2  1  0  0  0  0
  9  6  1  0  0  0  0
  9 12  1  0  0  0  0
 11  6  1  0  0  0  0
 13  9  1  0  0  0  0
 14  9  1  0  0  0  0
M  END
$$$$
