butane_opt
 OpenBabel08242015413D

 14 13  0  0  0  0  0  0  0  0999 V2000
   -3.9534    0.2317    0.0613 C   0  0  0  0  0  0  0  0  0  0  0  0
   -2.7157   -0.5847   -0.0115 C   0  0  0  0  0  0  0  0  0  0  0  0
   -4.8621   -0.3735   -0.0095 H   0  0  0  0  0  0  0  0  0  0  0  0
   -3.9616    0.7744   -0.8200 H   0  0  0  0  0  0  0  0  0  0  0  0
   -3.9902    1.0216    0.9665 H   0  0  0  0  0  0  0  0  0  0  0  0
   -1.4225    0.2099   -0.0124 C   0  0  0  0  0  0  0  0  0  0  0  0
   -2.8543   -1.3301   -0.9313 H   0  0  0  0  0  0  0  0  0  0  0  0
   -2.6525   -1.0639    0.7450 H   0  0  0  0  0  0  0  0  0  0  0  0
   -0.1070   -0.7172    0.0798 C   0  0  0  0  0  0  0  0  0  0  0  0
   -1.4186    0.8216    0.8429 H   0  0  0  0  0  0  0  0  0  0  0  0
   -1.3748    0.8619   -0.9400 H   0  0  0  0  0  0  0  0  0  0  0  0
   -0.0386   -1.5693    1.1224 H   0  0  0  0  0  0  0  0  0  0  0  0
    0.7417   -0.1246   -0.2670 H   0  0  0  0  0  0  0  0  0  0  0  0
   -0.2119   -1.1719   -0.6513 H   0  0  0  0  0  0  0  0  0  0  0  0
  1  5  1  0  0  0  0
  2  1  1  0  0  0  0
  2  8  1  0  0  0  0
  3  1  1  0  0  0  0
  4  1  1  0  0  0  0
  6  2  1  0  0  0  0
  6  9  1  0  0  0  0
  6 10  1  0  0  0  0
  7  2  1  0  0  0  0
  9 12  1  0  0  0  0
 11  6  1  0  0  0  0
 13  9  1  0  0  0  0
 14  9  1  0  0  0  0
M  END
$$$$
