14
butane_opt
C  -3.910981   0.265180  -0.050120
C  -2.692194  -0.609347   0.103984
H  -4.827117  -0.347171   0.012429
H  -3.954869   0.945615  -0.988024
H  -4.042078   0.897227   0.719696
C  -1.406711   0.169568   0.101105
H  -2.660243  -1.337471  -0.773185
H  -2.815616  -1.207580   1.016255
C  -0.181560  -0.686222  -0.038936
H  -1.380574   0.926350   0.993183
H  -1.468850   0.768770  -0.732983
H  -0.090406  -1.409216   0.902118
H   0.763444  -0.065376  -0.226186
H  -0.247511  -1.311072  -0.874926
