14
butane_opt
C  -3.964986   0.246909   0.005146
C  -2.712066  -0.593250   0.056741
H  -4.896245  -0.404632   0.089996
H  -3.914288   1.019782  -1.015556
H  -3.933583   0.875964   0.797964
C  -1.409223   0.190478   0.034727
H  -2.706250  -1.301257  -0.774456
H  -2.670931  -1.244674   0.944452
C  -0.143096  -0.697917   0.021059
H  -1.332475   0.842068   0.871044
H  -1.434195   0.832398  -0.858955
H  -0.081727  -1.197891   0.822809
H   0.754351  -0.150258   0.049813
H  -0.054856  -1.495177  -0.922246
