butane_opt
 OpenBabel08242015413D

 14 13  0  0  0  0  0  0  0  0999 V2000
   -3.9650    0.2469    0.0051 C   0  0  0  0  0  0  0  0  0  0  0  0
   -2.7121   -0.5933    0.0567 C   0  0  0  0  0  0  0  0  0  0  0  0
   -4.8962   -0.4046    0.0900 H   0  0  0  0  0  0  0  0  0  0  0  0
   -3.9143    1.0198   -1.0156 H   0  0  0  0  0  0  0  0  0  0  0  0
   -3.9336    0.8760    0.7980 H   0  0  0  0  0  0  0  0  0  0  0  0
   -1.4092    0.1905    0.0347 C   0  0  0  0  0  0  0  0  0  0  0  0
   -2.7062   -1.3013   -0.7745 H   0  0  0  0  0  0  0  0  0  0  0  0
   -2.6709   -1.2447    0.9445 H   0  0  0  0  0  0  0  0  0  0  0  0
   -0.1431   -0.6979    0.0211 C   0  0  0  0  0  0  0  0  0  0  0  0
   -1.3325    0.8421    0.8710 H   0  0  0  0  0  0  0  0  0  0  0  0
   -1.4342    0.8324   -0.8590 H   0  0  0  0  0  0  0  0  0  0  0  0
   -0.0817   -1.1979    0.8228 H   0  0  0  0  0  0  0  0  0  0  0  0
    0.7544   -0.1503    0.0498 H   0  0  0  0  0  0  0  0  0  0  0  0
   -0.0549   -1.4952   -0.9222 H   0  0  0  0  0  0  0  0  0  0  0  0
  1  2  1  0  0  0  0
  1  3  1  0  0  0  0
  1  5  1  0  0  0  0
  2  8  1  0  0  0  0
  4  1  1  0  0  0  0
  6  2  1  0  0  0  0
  6 10  1  0  0  0  0
  7  2  1  0  0  0  0
  9  6  1  0  0  0  0
  9 13  1  0  0  0  0
  9 12  1  0  0  0  0
 11  6  1  0  0  0  0
 14  9  1  0  0  0  0
M  END
$$$$
