14
butane_opt
C  -3.927607   0.270363  -0.024320
C  -2.704297  -0.604965   0.097634
H  -4.849203  -0.328918  -0.087700
H  -3.925746   0.934116  -0.979936
H  -3.995723   0.914196   0.794822
C  -1.415827   0.168655   0.066325
H  -2.671746  -1.323417  -0.838050
H  -2.808941  -1.263547   1.007260
C  -0.164459  -0.698460  -0.005824
H  -1.317577   0.855809   0.928531
H  -1.411801   0.770135  -0.811175
H  -0.012730  -1.296598   0.840969
H   0.805534   0.008295  -0.144309
H  -0.294002  -1.356238  -0.874367
