14
butane_opt
C  -3.915952   0.240846   0.025478
C  -2.709178  -0.599390   0.048728
H  -4.784896  -0.316189  -0.089962
H  -3.895788   0.706397  -0.781882
H  -4.032308   1.170059   1.016743
C  -1.407385   0.197577  -0.020523
H  -2.730260  -1.301881  -0.806887
H  -2.679876  -1.180321   0.868348
C  -0.168333  -0.708054   0.053127
H  -1.426125   0.738104   0.766964
H  -1.394423   0.913195  -0.957126
H  -0.158783  -1.330295   0.958963
H   0.700389  -0.096431   0.011838
H  -0.197073  -1.353583  -0.801909
