14
butane_opt
C  -3.942018   0.257925   0.021624
C  -2.725656  -0.606954   0.031486
H  -4.878894  -0.354448   0.186769
H  -3.976259   0.780805  -0.812577
H  -3.835711   0.929024   0.891462
C  -1.398006   0.222919  -0.030862
H  -2.746708  -1.278018  -0.771888
H  -2.766414  -1.313514   0.984290
C  -0.153884  -0.712454   0.047380
H  -1.448386   0.889323   0.815773
H  -1.379432   0.891004  -0.967741
H  -0.165513  -1.205712   0.860398
H   0.706545  -0.159672   0.293511
H   0.088669  -1.592175  -0.885017
