14
butane_opt
C  -3.939627   0.249397  -0.002344
C  -2.710482  -0.603446   0.067347
H  -4.845987  -0.343939   0.145230
H  -3.916838   0.912121  -0.926631
H  -3.973312   0.750848   0.770093
C  -1.405935   0.226505   0.020815
H  -2.712606  -1.306831  -0.793084
H  -2.790983  -1.165590   0.980264
C  -0.155356  -0.719587   0.011638
H  -1.393459   0.885360   0.869946
H  -1.489478   0.847239  -0.849128
H  -0.122246  -1.220739   0.803513
H   0.773094  -0.142225   0.152322
H  -0.016541  -1.522376  -0.895215
