butane_opt
 OpenBabel08242015413D

 14 13  0  0  0  0  0  0  0  0999 V2000
   -3.9627    0.2686    0.0015 C   0  0  0  0  0  0  0  0  0  0  0  0
   -2.7054   -0.6194    0.0786 C   0  0  0  0  0  0  0  0  0  0  0  0
   -4.8227   -0.2703    0.0219 H   0  0  0  0  0  0  0  0  0  0  0  0
   -3.9814    0.9442   -0.9494 H   0  0  0  0  0  0  0  0  0  0  0  0
   -3.9500    0.8342    0.8106 H   0  0  0  0  0  0  0  0  0  0  0  0
   -1.4127    0.1773    0.0033 C   0  0  0  0  0  0  0  0  0  0  0  0
   -2.7009   -1.2318   -0.7171 H   0  0  0  0  0  0  0  0  0  0  0  0
   -2.7377   -1.3198    1.0197 H   0  0  0  0  0  0  0  0  0  0  0  0
   -0.1383   -0.6844    0.0105 C   0  0  0  0  0  0  0  0  0  0  0  0
   -1.3069    0.8511    0.8624 H   0  0  0  0  0  0  0  0  0  0  0  0
   -1.4437    0.7622   -0.8126 H   0  0  0  0  0  0  0  0  0  0  0  0
   -0.2561   -1.1035    0.7167 H   0  0  0  0  0  0  0  0  0  0  0  0
    0.7809   -0.1033    0.2822 H   0  0  0  0  0  0  0  0  0  0  0  0
    0.0151   -1.5313   -0.9514 H   0  0  0  0  0  0  0  0  0  0  0  0
  1  3  1  0  0  0  0
  1  2  1  0  0  0  0
  1  5  1  0  0  0  0
  2  8  1  0  0  0  0
  4  1  1  0  0  0  0
  6  9  1  0  0  0  0
  6  2  1  0  0  0  0
  6 10  1  0  0  0  0
  7  2  1  0  0  0  0
  9 13  1  0  0  0  0
  9 12  1  0  0  0  0
 11  6  1  0  0  0  0
 14  9  1  0  0  0  0
M  END
$$$$
