butane_opt
 OpenBabel08242015413D

 14 13  0  0  0  0  0  0  0  0999 V2000
   -3.9759    0.2808    0.0630 C   0  0  0  0  0  0  0  0  0  0  0  0
   -2.6950   -0.6271    0.0295 C   0  0  0  0  0  0  0  0  0  0  0  0
   -4.8888   -0.3460   -0.2447 H   0  0  0  0  0  0  0  0  0  0  0  0
   -3.8708    0.6755   -0.7206 H   0  0  0  0  0  0  0  0  0  0  0  0
   -4.1340    1.1679    1.0607 H   0  0  0  0  0  0  0  0  0  0  0  0
   -1.4007    0.1637   -0.0407 C   0  0  0  0  0  0  0  0  0  0  0  0
   -2.6612   -1.4209   -0.8880 H   0  0  0  0  0  0  0  0  0  0  0  0
   -2.6686   -1.2053    0.8874 H   0  0  0  0  0  0  0  0  0  0  0  0
   -0.1531   -0.6855    0.0613 C   0  0  0  0  0  0  0  0  0  0  0  0
   -1.3220    0.7815    0.7346 H   0  0  0  0  0  0  0  0  0  0  0  0
   -1.3513    0.9340   -1.0086 H   0  0  0  0  0  0  0  0  0  0  0  0
   -0.1466   -1.3975    1.0154 H   0  0  0  0  0  0  0  0  0  0  0  0
    0.7995   -0.0581    0.0078 H   0  0  0  0  0  0  0  0  0  0  0  0
   -0.0826   -1.1888   -0.7167 H   0  0  0  0  0  0  0  0  0  0  0  0
  1  5  1  0  0  0  0
  2  1  1  0  0  0  0
  2  8  1  0  0  0  0
  3  1  1  0  0  0  0
  4  1  1  0  0  0  0
  6  2  1  0  0  0  0
  6  9  1  0  0  0  0
  6 10  1  0  0  0  0
  7  2  1  0  0  0  0
  9 12  1  0  0  0  0
 11  6  1  0  0  0  0
 13  9  1  0  0  0  0
 14  9  1  0  0  0  0
M  END
$$$$
