14
butane_opt
C  -3.937258   0.272654  -0.030990
C  -2.677568  -0.618483   0.080726
H  -4.833741  -0.320237   0.114623
H  -4.023645   0.963159  -0.956969
H  -3.881838   0.778609   0.729583
C  -1.410112   0.178564   0.049295
H  -2.762230  -1.167832  -0.685405
H  -2.704796  -1.318885   1.023893
C  -0.174864  -0.699384   0.002407
H  -1.438296   0.903030   0.925317
H  -1.444622   0.722466  -0.833520
H  -0.169489  -1.104078   0.740917
H   0.792535   0.017239   0.116161
H  -0.175267  -1.537087  -0.995328
