butane_opt
 OpenBabel08242015413D

 14 13  0  0  0  0  0  0  0  0999 V2000
   -3.9420    0.2579    0.0216 C   0  0  0  0  0  0  0  0  0  0  0  0
   -2.7257   -0.6070    0.0315 C   0  0  0  0  0  0  0  0  0  0  0  0
   -4.8789   -0.3544    0.1868 H   0  0  0  0  0  0  0  0  0  0  0  0
   -3.9763    0.7808   -0.8126 H   0  0  0  0  0  0  0  0  0  0  0  0
   -3.8357    0.9290    0.8915 H   0  0  0  0  0  0  0  0  0  0  0  0
   -1.3980    0.2229   -0.0309 C   0  0  0  0  0  0  0  0  0  0  0  0
   -2.7467   -1.2780   -0.7719 H   0  0  0  0  0  0  0  0  0  0  0  0
   -2.7664   -1.3135    0.9843 H   0  0  0  0  0  0  0  0  0  0  0  0
   -0.1539   -0.7125    0.0474 C   0  0  0  0  0  0  0  0  0  0  0  0
   -1.4484    0.8893    0.8158 H   0  0  0  0  0  0  0  0  0  0  0  0
   -1.3794    0.8910   -0.9677 H   0  0  0  0  0  0  0  0  0  0  0  0
   -0.1655   -1.2057    0.8604 H   0  0  0  0  0  0  0  0  0  0  0  0
    0.7065   -0.1597    0.2935 H   0  0  0  0  0  0  0  0  0  0  0  0
    0.0887   -1.5922   -0.8850 H   0  0  0  0  0  0  0  0  0  0  0  0
  1  2  1  0  0  0  0
  1  3  1  0  0  0  0
  1  5  1  0  0  0  0
  2  8  1  0  0  0  0
  4  1  1  0  0  0  0
  6  2  1  0  0  0  0
  6  9  1  0  0  0  0
  6 10  1  0  0  0  0
  7  2  1  0  0  0  0
  9 13  1  0  0  0  0
  9 12  1  0  0  0  0
 11  6  1  0  0  0  0
 14  9  1  0  0  0  0
M  END
$$$$
