butane_opt
 OpenBabel08242015413D

 14 13  0  0  0  0  0  0  0  0999 V2000
   -3.9375    0.2766    0.0494 C   0  0  0  0  0  0  0  0  0  0  0  0
   -2.6912   -0.6231    0.0005 C   0  0  0  0  0  0  0  0  0  0  0  0
   -4.8575   -0.3135    0.1372 H   0  0  0  0  0  0  0  0  0  0  0  0
   -4.0077    0.9420   -0.9123 H   0  0  0  0  0  0  0  0  0  0  0  0
   -3.8830    0.8283    0.8348 H   0  0  0  0  0  0  0  0  0  0  0  0
   -1.4053    0.1813   -0.0077 C   0  0  0  0  0  0  0  0  0  0  0  0
   -2.7375   -1.3307   -0.8604 H   0  0  0  0  0  0  0  0  0  0  0  0
   -2.7105   -1.2673    0.8775 H   0  0  0  0  0  0  0  0  0  0  0  0
   -0.1729   -0.6842    0.0527 C   0  0  0  0  0  0  0  0  0  0  0  0
   -1.4028    0.9044    0.8901 H   0  0  0  0  0  0  0  0  0  0  0  0
   -1.3457    0.7925   -0.8830 H   0  0  0  0  0  0  0  0  0  0  0  0
   -0.1883   -1.3486    0.9815 H   0  0  0  0  0  0  0  0  0  0  0  0
    0.7311   -0.1227    0.0290 H   0  0  0  0  0  0  0  0  0  0  0  0
   -0.1456   -1.3573   -0.8048 H   0  0  0  0  0  0  0  0  0  0  0  0
  1  3  1  0  0  0  0
  1  5  1  0  0  0  0
  2  1  1  0  0  0  0
  2  8  1  0  0  0  0
  4  1  1  0  0  0  0
  6  2  1  0  0  0  0
  6  9  1  0  0  0  0
  6 10  1  0  0  0  0
  7  2  1  0  0  0  0
  9 12  1  0  0  0  0
 11  6  1  0  0  0  0
 13  9  1  0  0  0  0
 14  9  1  0  0  0  0
M  END
$$$$
