butane_opt
 OpenBabel08242015413D

 14 13  0  0  0  0  0  0  0  0999 V2000
   -3.9538    0.2402    0.0734 C   0  0  0  0  0  0  0  0  0  0  0  0
   -2.7064   -0.5991   -0.0228 C   0  0  0  0  0  0  0  0  0  0  0  0
   -4.8484   -0.3199   -0.0620 H   0  0  0  0  0  0  0  0  0  0  0  0
   -3.9065    0.8134   -0.7580 H   0  0  0  0  0  0  0  0  0  0  0  0
   -3.9811    1.0231    0.9956 H   0  0  0  0  0  0  0  0  0  0  0  0
   -1.3937    0.2096   -0.0282 C   0  0  0  0  0  0  0  0  0  0  0  0
   -2.7845   -1.3449   -0.9317 H   0  0  0  0  0  0  0  0  0  0  0  0
   -2.7452   -1.1619    0.8388 H   0  0  0  0  0  0  0  0  0  0  0  0
   -0.1614   -0.7065    0.0753 C   0  0  0  0  0  0  0  0  0  0  0  0
   -1.4075    0.8980    0.8594 H   0  0  0  0  0  0  0  0  0  0  0  0
   -1.3226    0.8548   -0.9176 H   0  0  0  0  0  0  0  0  0  0  0  0
   -0.0775   -1.6122    1.1667 H   0  0  0  0  0  0  0  0  0  0  0  0
    0.7138   -0.1556   -0.2267 H   0  0  0  0  0  0  0  0  0  0  0  0
   -0.0816   -1.2020   -0.6774 H   0  0  0  0  0  0  0  0  0  0  0  0
  1  5  1  0  0  0  0
  2  1  1  0  0  0  0
  2  8  1  0  0  0  0
  3  1  1  0  0  0  0
  4  1  1  0  0  0  0
  6  2  1  0  0  0  0
  6  9  1  0  0  0  0
  6 10  1  0  0  0  0
  7  2  1  0  0  0  0
  9 12  1  0  0  0  0
 11  6  1  0  0  0  0
 13  9  1  0  0  0  0
 14  9  1  0  0  0  0
M  END
$$$$
