14
butane_opt
C  -3.951324   0.258709   0.075773
C  -2.712646  -0.611103  -0.030742
H  -4.902786  -0.415600   0.284924
H  -4.116422   0.965889  -0.880007
H  -3.850207   0.793652   0.889793
C  -1.400103   0.221611  -0.041174
H  -2.787438  -1.439739  -1.034766
H  -2.653510  -1.160114   0.820161
C  -0.140136  -0.707209   0.085558
H  -1.472474   0.875978   0.786578
H  -1.349293   0.868944  -0.939810
H  -0.103995  -1.374101   1.052960
H   0.707470  -0.188738   0.111193
H  -0.029116  -1.347527  -0.732057
