14
butane_opt
C  -3.912365   0.244346   0.034161
C  -2.701426  -0.595714   0.005300
H  -4.860023  -0.396859   0.059012
H  -4.040126   0.878575  -0.855011
H  -3.950386   1.024136   0.908716
C  -1.404636   0.203281   0.018141
H  -2.788048  -1.330201  -0.892396
H  -2.796846  -1.199190   0.867024
C  -0.165787  -0.710963   0.028193
H  -1.418089   0.945530   0.900107
H  -1.414448   0.778585  -0.881169
H  -0.089285  -1.585194   1.098268
H   0.745790  -0.141182  -0.114689
H  -0.184164  -1.136089  -0.642646
