butane_opt
 OpenBabel08242015413D

 14 13  0  0  0  0  0  0  0  0999 V2000
   -3.9585    0.2478   -0.0242 C   0  0  0  0  0  0  0  0  0  0  0  0
   -2.7048   -0.5980    0.0704 C   0  0  0  0  0  0  0  0  0  0  0  0
   -4.9875   -0.4568    0.1246 H   0  0  0  0  0  0  0  0  0  0  0  0
   -4.0509    1.0760   -1.0368 H   0  0  0  0  0  0  0  0  0  0  0  0
   -3.9122    0.7677    0.7542 H   0  0  0  0  0  0  0  0  0  0  0  0
   -1.3964    0.2143    0.0763 C   0  0  0  0  0  0  0  0  0  0  0  0
   -2.6829   -1.3000   -0.7609 H   0  0  0  0  0  0  0  0  0  0  0  0
   -2.7680   -1.2325    1.0097 H   0  0  0  0  0  0  0  0  0  0  0  0
   -0.1332   -0.7183   -0.0145 C   0  0  0  0  0  0  0  0  0  0  0  0
   -1.4027    0.9042    0.9565 H   0  0  0  0  0  0  0  0  0  0  0  0
   -1.4058    0.8603   -0.8492 H   0  0  0  0  0  0  0  0  0  0  0  0
   -0.0792   -1.2429    0.8166 H   0  0  0  0  0  0  0  0  0  0  0  0
    0.7165   -0.1389    0.0379 H   0  0  0  0  0  0  0  0  0  0  0  0
   -0.1102   -1.4778   -0.9458 H   0  0  0  0  0  0  0  0  0  0  0  0
  1  2  1  0  0  0  0
  1  3  1  0  0  0  0
  1  5  1  0  0  0  0
  2  6  1  0  0  0  0
  2  8  1  0  0  0  0
  4  1  1  0  0  0  0
  6 10  1  0  0  0  0
  7  2  1  0  0  0  0
  9 13  1  0  0  0  0
  9  6  1  0  0  0  0
  9 12  1  0  0  0  0
 11  6  1  0  0  0  0
 14  9  1  0  0  0  0
M  END
$$$$
