butane_opt
 OpenBabel08242015413D

 14 13  0  0  0  0  0  0  0  0999 V2000
   -3.9570    0.2750    0.0587 C   0  0  0  0  0  0  0  0  0  0  0  0
   -2.6903   -0.6515    0.0124 C   0  0  0  0  0  0  0  0  0  0  0  0
   -4.8572   -0.3026    0.0917 H   0  0  0  0  0  0  0  0  0  0  0  0
   -4.1009    0.9296   -0.8206 H   0  0  0  0  0  0  0  0  0  0  0  0
   -3.9979    1.0097    0.9456 H   0  0  0  0  0  0  0  0  0  0  0  0
   -1.4032    0.1913   -0.0391 C   0  0  0  0  0  0  0  0  0  0  0  0
   -2.6873   -1.3454   -0.8668 H   0  0  0  0  0  0  0  0  0  0  0  0
   -2.7467   -1.2726    0.8973 H   0  0  0  0  0  0  0  0  0  0  0  0
   -0.1489   -0.6900    0.0681 C   0  0  0  0  0  0  0  0  0  0  0  0
   -1.3748    0.7718    0.7382 H   0  0  0  0  0  0  0  0  0  0  0  0
   -1.3082    0.9129   -1.0617 H   0  0  0  0  0  0  0  0  0  0  0  0
   -0.2558   -1.1728    0.8865 H   0  0  0  0  0  0  0  0  0  0  0  0
    0.7746   -0.0613    0.3156 H   0  0  0  0  0  0  0  0  0  0  0  0
   -0.0675   -1.4445   -0.8829 H   0  0  0  0  0  0  0  0  0  0  0  0
  1  3  1  0  0  0  0
  1  5  1  0  0  0  0
  2  1  1  0  0  0  0
  2  8  1  0  0  0  0
  4  1  1  0  0  0  0
  6  2  1  0  0  0  0
  6  9  1  0  0  0  0
  6 10  1  0  0  0  0
  7  2  1  0  0  0  0
  9 13  1  0  0  0  0
  9 12  1  0  0  0  0
 11  6  1  0  0  0  0
 14  9  1  0  0  0  0
M  END
$$$$
