14
butane_opt
C  -3.923902   0.281424   0.077415
C  -2.700432  -0.631069   0.007898
H  -4.779316  -0.231646  -0.009626
H  -3.947037   0.822305  -0.763554
H  -3.976195   1.057859   0.994435
C  -1.399683   0.160148  -0.083789
H  -2.754736  -1.431516  -0.905147
H  -2.611671  -1.255636   0.906874
C  -0.198697  -0.677478   0.089778
H  -1.397096   0.798485   0.727006
H  -1.349124   0.814090  -1.010636
H  -0.253746  -1.242514   0.959726
H   0.777677  -0.043480   0.262554
H  -0.078581  -1.339750  -0.805682
