butane_opt
 OpenBabel08242015413D

 14 13  0  0  0  0  0  0  0  0999 V2000
   -3.9378    0.2501    0.0611 C   0  0  0  0  0  0  0  0  0  0  0  0
   -2.6974   -0.6022   -0.0151 C   0  0  0  0  0  0  0  0  0  0  0  0
   -4.8814   -0.3918    0.1069 H   0  0  0  0  0  0  0  0  0  0  0  0
   -3.9860    0.8674   -0.8044 H   0  0  0  0  0  0  0  0  0  0  0  0
   -3.8911    0.9831    0.9609 H   0  0  0  0  0  0  0  0  0  0  0  0
   -1.4197    0.1956   -0.0141 C   0  0  0  0  0  0  0  0  0  0  0  0
   -2.7415   -1.3964   -0.9829 H   0  0  0  0  0  0  0  0  0  0  0  0
   -2.7123   -1.1367    0.8023 H   0  0  0  0  0  0  0  0  0  0  0  0
   -0.1503   -0.6873    0.0594 C   0  0  0  0  0  0  0  0  0  0  0  0
   -1.4460    0.8224    0.7922 H   0  0  0  0  0  0  0  0  0  0  0  0
   -1.3290    0.8593   -0.9363 H   0  0  0  0  0  0  0  0  0  0  0  0
   -0.1027   -1.5408    1.1304 H   0  0  0  0  0  0  0  0  0  0  0  0
    0.6808   -0.2050   -0.0440 H   0  0  0  0  0  0  0  0  0  0  0  0
   -0.1394   -1.2147   -0.6542 H   0  0  0  0  0  0  0  0  0  0  0  0
  1  3  1  0  0  0  0
  1  5  1  0  0  0  0
  2  6  1  0  0  0  0
  2  1  1  0  0  0  0
  2  8  1  0  0  0  0
  4  1  1  0  0  0  0
  6  9  1  0  0  0  0
  6 10  1  0  0  0  0
  7  2  1  0  0  0  0
  9 12  1  0  0  0  0
 11  6  1  0  0  0  0
 13  9  1  0  0  0  0
 14  9  1  0  0  0  0
M  END
$$$$
