butane_opt
 OpenBabel08242015413D

 14 13  0  0  0  0  0  0  0  0999 V2000
   -3.9445    0.2735    0.0253 C   0  0  0  0  0  0  0  0  0  0  0  0
   -2.6864   -0.6162    0.0303 C   0  0  0  0  0  0  0  0  0  0  0  0
   -4.8470   -0.3094   -0.0228 H   0  0  0  0  0  0  0  0  0  0  0  0
   -3.9380    0.7993   -0.8194 H   0  0  0  0  0  0  0  0  0  0  0  0
   -4.0161    1.0254    0.9368 H   0  0  0  0  0  0  0  0  0  0  0  0
   -1.4100    0.1617   -0.0049 C   0  0  0  0  0  0  0  0  0  0  0  0
   -2.7045   -1.3301   -0.8589 H   0  0  0  0  0  0  0  0  0  0  0  0
   -2.6717   -1.2660    0.9345 H   0  0  0  0  0  0  0  0  0  0  0  0
   -0.1671   -0.6759    0.0457 C   0  0  0  0  0  0  0  0  0  0  0  0
   -1.3424    0.8457    0.8642 H   0  0  0  0  0  0  0  0  0  0  0  0
   -1.4122    0.7790   -0.8689 H   0  0  0  0  0  0  0  0  0  0  0  0
   -0.1620   -1.3943    0.9715 H   0  0  0  0  0  0  0  0  0  0  0  0
    0.7612   -0.0701   -0.0788 H   0  0  0  0  0  0  0  0  0  0  0  0
   -0.1950   -1.2611   -0.7538 H   0  0  0  0  0  0  0  0  0  0  0  0
  1  2  1  0  0  0  0
  1  5  1  0  0  0  0
  2  8  1  0  0  0  0
  3  1  1  0  0  0  0
  4  1  1  0  0  0  0
  6  2  1  0  0  0  0
  6  9  1  0  0  0  0
  6 10  1  0  0  0  0
  7  2  1  0  0  0  0
  9 12  1  0  0  0  0
 11  6  1  0  0  0  0
 13  9  1  0  0  0  0
 14  9  1  0  0  0  0
M  END
$$$$
