butane_opt
 OpenBabel08242015413D

 14 13  0  0  0  0  0  0  0  0999 V2000
   -3.9105    0.2470    0.0247 C   0  0  0  0  0  0  0  0  0  0  0  0
   -2.7071   -0.5866    0.0197 C   0  0  0  0  0  0  0  0  0  0  0  0
   -4.8464   -0.3598   -0.0121 H   0  0  0  0  0  0  0  0  0  0  0  0
   -3.8130    0.7734   -0.8513 H   0  0  0  0  0  0  0  0  0  0  0  0
   -3.9272    0.9689    0.9476 H   0  0  0  0  0  0  0  0  0  0  0  0
   -1.4152    0.1992    0.0131 C   0  0  0  0  0  0  0  0  0  0  0  0
   -2.7933   -1.3060   -0.8338 H   0  0  0  0  0  0  0  0  0  0  0  0
   -2.7229   -1.2247    0.9503 H   0  0  0  0  0  0  0  0  0  0  0  0
   -0.1787   -0.7062    0.0333 C   0  0  0  0  0  0  0  0  0  0  0  0
   -1.4856    0.9206    0.9195 H   0  0  0  0  0  0  0  0  0  0  0  0
   -1.3847    0.8192   -0.9062 H   0  0  0  0  0  0  0  0  0  0  0  0
   -0.0347   -1.4758    1.0022 H   0  0  0  0  0  0  0  0  0  0  0  0
    0.6720   -0.2057   -0.1220 H   0  0  0  0  0  0  0  0  0  0  0  0
   -0.1533   -1.2183   -0.7262 H   0  0  0  0  0  0  0  0  0  0  0  0
  1  5  1  0  0  0  0
  2  1  1  0  0  0  0
  2  8  1  0  0  0  0
  3  1  1  0  0  0  0
  4  1  1  0  0  0  0
  6  2  1  0  0  0  0
  6  9  1  0  0  0  0
  6 10  1  0  0  0  0
  7  2  1  0  0  0  0
  9 12  1  0  0  0  0
 11  6  1  0  0  0  0
 13  9  1  0  0  0  0
 14  9  1  0  0  0  0
M  END
$$$$
