14
butane_opt
C  -3.932951   0.286912  -0.024877
C  -2.699075  -0.616247   0.106982
H  -4.832453  -0.336407  -0.192863
H  -3.812309   0.770953  -0.881065
H  -4.058267   1.034230   0.888982
C  -1.394707   0.156571   0.041634
H  -2.691877  -1.257468  -0.751764
H  -2.764795  -1.389428   1.068601
C  -0.180577  -0.691672  -0.025299
H  -1.329925   0.876227   0.893497
H  -1.548421   0.808654  -0.811443
H  -0.166022  -1.238164   0.864243
H   0.826716  -0.033007   0.071640
H  -0.172968  -1.321932  -0.868339
