butane_opt
 OpenBabel08242015413D

 14 13  0  0  0  0  0  0  0  0999 V2000
   -3.9510    0.2587    0.0527 C   0  0  0  0  0  0  0  0  0  0  0  0
   -2.7262   -0.6029    0.0098 C   0  0  0  0  0  0  0  0  0  0  0  0
   -4.8289   -0.3122   -0.1038 H   0  0  0  0  0  0  0  0  0  0  0  0
   -3.8486    0.7355   -0.7647 H   0  0  0  0  0  0  0  0  0  0  0  0
   -3.9890    0.9876    0.9353 H   0  0  0  0  0  0  0  0  0  0  0  0
   -1.3977    0.2006   -0.0081 C   0  0  0  0  0  0  0  0  0  0  0  0
   -2.7665   -1.3365   -0.8369 H   0  0  0  0  0  0  0  0  0  0  0  0
   -2.7882   -1.1673    0.8530 H   0  0  0  0  0  0  0  0  0  0  0  0
   -0.1337   -0.7080    0.0573 C   0  0  0  0  0  0  0  0  0  0  0  0
   -1.4660    0.8516    0.7946 H   0  0  0  0  0  0  0  0  0  0  0  0
   -1.3909    0.8588   -0.9309 H   0  0  0  0  0  0  0  0  0  0  0  0
   -0.0326   -1.4935    1.0384 H   0  0  0  0  0  0  0  0  0  0  0  0
    0.7808   -0.1482   -0.1145 H   0  0  0  0  0  0  0  0  0  0  0  0
   -0.2038   -1.2216   -0.7381 H   0  0  0  0  0  0  0  0  0  0  0  0
  1  5  1  0  0  0  0
  2  1  1  0  0  0  0
  2  8  1  0  0  0  0
  3  1  1  0  0  0  0
  4  1  1  0  0  0  0
  6  2  1  0  0  0  0
  6  9  1  0  0  0  0
  6 10  1  0  0  0  0
  7  2  1  0  0  0  0
  9 12  1  0  0  0  0
 11  6  1  0  0  0  0
 13  9  1  0  0  0  0
 14  9  1  0  0  0  0
M  END
$$$$
