butane_opt
 OpenBabel08242015413D

 14 13  0  0  0  0  0  0  0  0999 V2000
   -3.9099    0.2447   -0.0145 C   0  0  0  0  0  0  0  0  0  0  0  0
   -2.6854   -0.5975    0.0521 C   0  0  0  0  0  0  0  0  0  0  0  0
   -4.9227   -0.4260    0.1285 H   0  0  0  0  0  0  0  0  0  0  0  0
   -3.9717    0.9664   -0.9679 H   0  0  0  0  0  0  0  0  0  0  0  0
   -3.8942    0.8292    0.7924 H   0  0  0  0  0  0  0  0  0  0  0  0
   -1.4326    0.1975    0.0759 C   0  0  0  0  0  0  0  0  0  0  0  0
   -2.6852   -1.2947   -0.8119 H   0  0  0  0  0  0  0  0  0  0  0  0
   -2.7734   -1.1377    0.9068 H   0  0  0  0  0  0  0  0  0  0  0  0
   -0.1725   -0.6998   -0.0005 C   0  0  0  0  0  0  0  0  0  0  0  0
   -1.4194    0.8910    0.8861 H   0  0  0  0  0  0  0  0  0  0  0  0
   -1.4149    0.8406   -0.8318 H   0  0  0  0  0  0  0  0  0  0  0  0
    0.0361   -1.4067    0.9438 H   0  0  0  0  0  0  0  0  0  0  0  0
    0.6670   -0.2022   -0.0866 H   0  0  0  0  0  0  0  0  0  0  0  0
   -0.2248   -1.2928   -0.8678 H   0  0  0  0  0  0  0  0  0  0  0  0
  1  2  1  0  0  0  0
  1  3  1  0  0  0  0
  1  5  1  0  0  0  0
  2  6  1  0  0  0  0
  2  8  1  0  0  0  0
  4  1  1  0  0  0  0
  6 10  1  0  0  0  0
  7  2  1  0  0  0  0
  9  6  1  0  0  0  0
  9 12  1  0  0  0  0
 11  6  1  0  0  0  0
 13  9  1  0  0  0  0
 14  9  1  0  0  0  0
M  END
$$$$
