butane_opt
 OpenBabel08242015413D

 14 13  0  0  0  0  0  0  0  0999 V2000
   -3.9492    0.2942    0.0819 C   0  0  0  0  0  0  0  0  0  0  0  0
   -2.7085   -0.6402   -0.0188 C   0  0  0  0  0  0  0  0  0  0  0  0
   -4.8565   -0.3244    0.0985 H   0  0  0  0  0  0  0  0  0  0  0  0
   -4.0954    0.9499   -0.8384 H   0  0  0  0  0  0  0  0  0  0  0  0
   -3.9495    0.9121    0.9353 H   0  0  0  0  0  0  0  0  0  0  0  0
   -1.3883    0.1628   -0.0456 C   0  0  0  0  0  0  0  0  0  0  0  0
   -2.8049   -1.3942   -0.9253 H   0  0  0  0  0  0  0  0  0  0  0  0
   -2.5721   -1.2650    0.8058 H   0  0  0  0  0  0  0  0  0  0  0  0
   -0.1599   -0.6848    0.0871 C   0  0  0  0  0  0  0  0  0  0  0  0
   -1.4230    0.7985    0.7653 H   0  0  0  0  0  0  0  0  0  0  0  0
   -1.3172    0.8868   -1.0311 H   0  0  0  0  0  0  0  0  0  0  0  0
   -0.2745   -1.2265    0.9616 H   0  0  0  0  0  0  0  0  0  0  0  0
    0.8109   -0.0501    0.1792 H   0  0  0  0  0  0  0  0  0  0  0  0
   -0.0749   -1.3316   -0.7837 H   0  0  0  0  0  0  0  0  0  0  0  0
  1  3  1  0  0  0  0
  1  5  1  0  0  0  0
  2  1  1  0  0  0  0
  2  8  1  0  0  0  0
  4  1  1  0  0  0  0
  6  2  1  0  0  0  0
  6  9  1  0  0  0  0
  6 10  1  0  0  0  0
  7  2  1  0  0  0  0
  9 13  1  0  0  0  0
  9 12  1  0  0  0  0
 11  6  1  0  0  0  0
 14  9  1  0  0  0  0
M  END
$$$$
