14
butane_opt
C  -3.940614   0.257684  -0.019849
C  -2.716642  -0.607275   0.086258
H  -4.918553  -0.399412   0.077939
H  -4.057740   0.908609  -0.939824
H  -3.879514   0.873053   0.784827
C  -1.406337   0.214199   0.017113
H  -2.723499  -1.235237  -0.687603
H  -2.757569  -1.335787   1.022294
C  -0.131977  -0.709986   0.000058
H  -1.429178   0.899592   0.901095
H  -1.481519   0.788462  -0.800650
H  -0.174486  -1.152941   0.786622
H   0.737432  -0.103653   0.225697
H   0.010456  -1.577454  -0.967464
