14
butane_opt
C  -3.933955   0.263639   0.056278
C  -2.688876  -0.637707   0.012919
H  -4.775232  -0.261070   0.005771
H  -4.093886   0.798596  -0.734995
H  -3.932375   1.098340   0.993270
C  -1.405896   0.174000  -0.054581
H  -2.693001  -1.319359  -0.875803
H  -2.615307  -1.203255   0.876056
C  -0.183147  -0.690941   0.082136
H  -1.454566   0.726294   0.723899
H  -1.374146   0.934919  -1.018335
H  -0.229423  -1.202428   0.886980
H   0.774000  -0.025259   0.211927
H  -0.086773  -1.327550  -0.783546
