14
butane_opt
C  -3.924091   0.250316   0.081947
C  -2.714386  -0.571959  -0.017418
H  -4.910719  -0.407969   0.087415
H  -3.936909   0.775203  -0.736693
H  -3.830453   0.971074   1.019112
C  -1.418908   0.186423  -0.070854
H  -2.683184  -1.317737  -0.881630
H  -2.732967  -1.212047   0.855231
C  -0.160995  -0.701295   0.094166
H  -1.430162   0.723351   0.712512
H  -1.320544   0.984926  -1.081477
H  -0.253917  -1.299508   0.949419
H   0.730013  -0.156483   0.304295
H  -0.029159  -1.505450  -0.831693
