14
butane_opt
C  -3.951045   0.258695   0.052703
C  -2.726163  -0.602947   0.009789
H  -4.828912  -0.312185  -0.103758
H  -3.848553   0.735490  -0.764675
H  -3.988997   0.987561   0.935276
C  -1.397673   0.200615  -0.008093
H  -2.766465  -1.336529  -0.836855
H  -2.788194  -1.167319   0.852978
C  -0.133694  -0.707964   0.057274
H  -1.466025   0.851585   0.794626
H  -1.390923   0.858755  -0.930908
H  -0.032599  -1.493501   1.038390
H   0.780784  -0.148189  -0.114497
H  -0.203801  -1.221639  -0.738117
