14
butane_opt
C  -3.949238   0.294176   0.081897
C  -2.708477  -0.640173  -0.018848
H  -4.856534  -0.324419   0.098540
H  -4.095438   0.949908  -0.838427
H  -3.949454   0.912139   0.935298
C  -1.388281   0.162791  -0.045582
H  -2.804852  -1.394244  -0.925325
H  -2.572088  -1.265043   0.805798
C  -0.159901  -0.684809   0.087139
H  -1.423014   0.798466   0.765350
H  -1.317160   0.886790  -1.031095
H  -0.274513  -1.226504   0.961615
H   0.810873  -0.050139   0.179178
H  -0.074942  -1.331556  -0.783700
