butane_opt
 OpenBabel08242015413D

 14 13  0  0  0  0  0  0  0  0999 V2000
   -3.9341    0.2785   -0.0417 C   0  0  0  0  0  0  0  0  0  0  0  0
   -2.6905   -0.6112    0.1222 C   0  0  0  0  0  0  0  0  0  0  0  0
   -4.8390   -0.3532   -0.1470 H   0  0  0  0  0  0  0  0  0  0  0  0
   -3.8830    0.7974   -0.9024 H   0  0  0  0  0  0  0  0  0  0  0  0
   -4.1227    1.0245    0.8465 H   0  0  0  0  0  0  0  0  0  0  0  0
   -1.3921    0.1584    0.0605 C   0  0  0  0  0  0  0  0  0  0  0  0
   -2.5988   -1.2963   -0.6820 H   0  0  0  0  0  0  0  0  0  0  0  0
   -2.8489   -1.2326    1.0124 H   0  0  0  0  0  0  0  0  0  0  0  0
   -0.1792   -0.6842   -0.0163 C   0  0  0  0  0  0  0  0  0  0  0  0
   -1.3513    0.7942    0.8798 H   0  0  0  0  0  0  0  0  0  0  0  0
   -1.4898    0.7994   -0.8332 H   0  0  0  0  0  0  0  0  0  0  0  0
   -0.1093   -1.2629    0.8491 H   0  0  0  0  0  0  0  0  0  0  0  0
    0.8215   -0.0251   -0.0681 H   0  0  0  0  0  0  0  0  0  0  0  0
   -0.2590   -1.4066   -0.9916 H   0  0  0  0  0  0  0  0  0  0  0  0
  1  2  1  0  0  0  0
  1  5  1  0  0  0  0
  2  8  1  0  0  0  0
  3  1  1  0  0  0  0
  4  1  1  0  0  0  0
  6  2  1  0  0  0  0
  6 10  1  0  0  0  0
  7  2  1  0  0  0  0
  9  6  1  0  0  0  0
  9 12  1  0  0  0  0
 11  6  1  0  0  0  0
 13  9  1  0  0  0  0
 14  9  1  0  0  0  0
M  END
$$$$
