butane_opt
 OpenBabel08242015413D

 14 13  0  0  0  0  0  0  0  0999 V2000
   -3.9414    0.2634   -0.0463 C   0  0  0  0  0  0  0  0  0  0  0  0
   -2.6873   -0.6247    0.1345 C   0  0  0  0  0  0  0  0  0  0  0  0
   -4.8001   -0.2935   -0.2395 H   0  0  0  0  0  0  0  0  0  0  0  0
   -3.8261    0.8530   -0.9248 H   0  0  0  0  0  0  0  0  0  0  0  0
   -4.1519    1.0806    0.8781 H   0  0  0  0  0  0  0  0  0  0  0  0
   -1.4064    0.1565    0.0530 C   0  0  0  0  0  0  0  0  0  0  0  0
   -2.5802   -1.1887   -0.6725 H   0  0  0  0  0  0  0  0  0  0  0  0
   -2.7321   -1.2976    1.0658 H   0  0  0  0  0  0  0  0  0  0  0  0
   -0.1696   -0.6718   -0.0259 C   0  0  0  0  0  0  0  0  0  0  0  0
   -1.3478    0.8618    0.9518 H   0  0  0  0  0  0  0  0  0  0  0  0
   -1.4776    0.7243   -0.7796 H   0  0  0  0  0  0  0  0  0  0  0  0
   -0.1714   -1.1950    0.8066 H   0  0  0  0  0  0  0  0  0  0  0  0
    0.7831   -0.0704   -0.1208 H   0  0  0  0  0  0  0  0  0  0  0  0
   -0.2575   -1.4239   -0.9099 H   0  0  0  0  0  0  0  0  0  0  0  0
  1  2  1  0  0  0  0
  1  5  1  0  0  0  0
  2  8  1  0  0  0  0
  3  1  1  0  0  0  0
  4  1  1  0  0  0  0
  6  2  1  0  0  0  0
  6 10  1  0  0  0  0
  7  2  1  0  0  0  0
  9  6  1  0  0  0  0
  9 12  1  0  0  0  0
 11  6  1  0  0  0  0
 13  9  1  0  0  0  0
 14  9  1  0  0  0  0
M  END
$$$$
