14
butane_opt
C  -3.945981   0.268381   0.045577
C  -2.687011  -0.618885  -0.009812
H  -4.849544  -0.332984   0.143222
H  -4.039130   0.871836  -0.815962
H  -3.879955   0.932870   0.909235
C  -1.410655   0.179914  -0.016220
H  -2.725458  -1.310792  -0.865415
H  -2.649211  -1.245416   0.872549
C  -0.173833  -0.692901   0.068886
H  -1.406640   0.878671   0.838947
H  -1.345237   0.825150  -0.940788
H  -0.166681  -1.322493   0.991434
H   0.783727  -0.081131  -0.016000
H  -0.139207  -1.319166  -0.740313
