butane_opt
 OpenBabel08242015413D

 14 13  0  0  0  0  0  0  0  0999 V2000
   -3.9428    0.2724   -0.0399 C   0  0  0  0  0  0  0  0  0  0  0  0
   -2.6916   -0.6172    0.0750 C   0  0  0  0  0  0  0  0  0  0  0  0
   -4.8497   -0.2754    0.0495 H   0  0  0  0  0  0  0  0  0  0  0  0
   -3.9692    0.9433   -0.9905 H   0  0  0  0  0  0  0  0  0  0  0  0
   -3.9721    0.8127    0.7144 H   0  0  0  0  0  0  0  0  0  0  0  0
   -1.3998    0.1709    0.0953 C   0  0  0  0  0  0  0  0  0  0  0  0
   -2.6530   -1.2148   -0.7462 H   0  0  0  0  0  0  0  0  0  0  0  0
   -2.7088   -1.3307    1.0635 H   0  0  0  0  0  0  0  0  0  0  0  0
   -0.1810   -0.6846   -0.0241 C   0  0  0  0  0  0  0  0  0  0  0  0
   -1.3405    0.9470    1.0292 H   0  0  0  0  0  0  0  0  0  0  0  0
   -1.3227    0.7292   -0.7295 H   0  0  0  0  0  0  0  0  0  0  0  0
   -0.0991   -1.3386    0.8822 H   0  0  0  0  0  0  0  0  0  0  0  0
    0.7372   -0.1038   -0.1971 H   0  0  0  0  0  0  0  0  0  0  0  0
   -0.2608   -1.3410   -0.9341 H   0  0  0  0  0  0  0  0  0  0  0  0
  1  3  1  0  0  0  0
  1  2  1  0  0  0  0
  1  5  1  0  0  0  0
  2  6  1  0  0  0  0
  2  8  1  0  0  0  0
  4  1  1  0  0  0  0
  6 10  1  0  0  0  0
  7  2  1  0  0  0  0
  9  6  1  0  0  0  0
  9 12  1  0  0  0  0
 11  6  1  0  0  0  0
 13  9  1  0  0  0  0
 14  9  1  0  0  0  0
M  END
$$$$
