14
butane_opt
C  -3.916077   0.249673  -0.024591
C  -2.706119  -0.589123   0.060034
H  -4.881404  -0.375376   0.069843
H  -4.018744   0.899670  -0.929345
H  -3.919920   0.925880   0.872019
C  -1.425981   0.186175   0.057062
H  -2.619364  -1.292060  -0.756978
H  -2.763226  -1.241704   0.950397
C  -0.157496  -0.695325   0.004128
H  -1.428733   0.893440   0.931147
H  -1.425909   0.708865  -0.776190
H  -0.088365  -1.392897   0.937287
H   0.771294  -0.107285  -0.206221
H  -0.174483  -1.296614  -0.812886
