butane_opt
 OpenBabel08242015413D

 14 13  0  0  0  0  0  0  0  0999 V2000
   -3.9036    0.2627    0.0607 C   0  0  0  0  0  0  0  0  0  0  0  0
   -2.7219   -0.5934   -0.0306 C   0  0  0  0  0  0  0  0  0  0  0  0
   -4.8314   -0.3801    0.2763 H   0  0  0  0  0  0  0  0  0  0  0  0
   -4.0517    0.9285   -0.8742 H   0  0  0  0  0  0  0  0  0  0  0  0
   -3.7984    0.7929    0.8495 H   0  0  0  0  0  0  0  0  0  0  0  0
   -1.4182    0.2021   -0.0102 C   0  0  0  0  0  0  0  0  0  0  0  0
   -2.7840   -1.3443   -0.9367 H   0  0  0  0  0  0  0  0  0  0  0  0
   -2.6606   -1.2139    0.8102 H   0  0  0  0  0  0  0  0  0  0  0  0
   -0.1680   -0.7161    0.0754 C   0  0  0  0  0  0  0  0  0  0  0  0
   -1.5110    0.7962    0.7923 H   0  0  0  0  0  0  0  0  0  0  0  0
   -1.3442    0.8543   -0.9148 H   0  0  0  0  0  0  0  0  0  0  0  0
   -0.1136   -1.3410    0.9801 H   0  0  0  0  0  0  0  0  0  0  0  0
    0.7882   -0.1083    0.0798 H   0  0  0  0  0  0  0  0  0  0  0  0
   -0.1767   -1.3044   -0.7703 H   0  0  0  0  0  0  0  0  0  0  0  0
  1  3  1  0  0  0  0
  1  5  1  0  0  0  0
  2  6  1  0  0  0  0
  2  1  1  0  0  0  0
  2  8  1  0  0  0  0
  4  1  1  0  0  0  0
  6  9  1  0  0  0  0
  6 10  1  0  0  0  0
  7  2  1  0  0  0  0
  9 13  1  0  0  0  0
  9 12  1  0  0  0  0
 11  6  1  0  0  0  0
 14  9  1  0  0  0  0
M  END
$$$$
