butane_opt
 OpenBabel08242015413D

 14 13  0  0  0  0  0  0  0  0999 V2000
   -3.9412    0.2727   -0.0014 C   0  0  0  0  0  0  0  0  0  0  0  0
   -2.6914   -0.6330    0.0543 C   0  0  0  0  0  0  0  0  0  0  0  0
   -4.8478   -0.3225    0.0809 H   0  0  0  0  0  0  0  0  0  0  0  0
   -3.9379    0.9858   -0.9658 H   0  0  0  0  0  0  0  0  0  0  0  0
   -3.9926    0.9185    0.8222 H   0  0  0  0  0  0  0  0  0  0  0  0
   -1.4079    0.1781    0.0453 C   0  0  0  0  0  0  0  0  0  0  0  0
   -2.6817   -1.3612   -0.8379 H   0  0  0  0  0  0  0  0  0  0  0  0
   -2.6462   -1.2676    0.9062 H   0  0  0  0  0  0  0  0  0  0  0  0
   -0.1734   -0.6788    0.0119 C   0  0  0  0  0  0  0  0  0  0  0  0
   -1.3529    0.8851    0.9252 H   0  0  0  0  0  0  0  0  0  0  0  0
   -1.3966    0.7887   -0.8336 H   0  0  0  0  0  0  0  0  0  0  0  0
   -0.1099   -1.3392    0.9335 H   0  0  0  0  0  0  0  0  0  0  0  0
    0.7449   -0.1026   -0.0883 H   0  0  0  0  0  0  0  0  0  0  0  0
   -0.2372   -1.3147   -0.8223 H   0  0  0  0  0  0  0  0  0  0  0  0
  1  2  1  0  0  0  0
  1  3  1  0  0  0  0
  1  5  1  0  0  0  0
  2  8  1  0  0  0  0
  4  1  1  0  0  0  0
  6  2  1  0  0  0  0
  6 10  1  0  0  0  0
  7  2  1  0  0  0  0
  9  6  1  0  0  0  0
  9 12  1  0  0  0  0
 11  6  1  0  0  0  0
 13  9  1  0  0  0  0
 14  9  1  0  0  0  0
M  END
$$$$
