14
butane_opt
C  -3.963822   0.292033  -0.005426
C  -2.713601  -0.628051   0.087189
H  -4.800488  -0.241836  -0.081737
H  -3.897878   0.870382  -0.924127
H  -4.074871   0.919622   0.836168
C  -1.380263   0.147610   0.032428
H  -2.765660  -1.334512  -0.783958
H  -2.713599  -1.274517   0.987530
C  -0.155683  -0.671927   0.007516
H  -1.412281   0.867877   0.909704
H  -1.373667   0.742020  -0.907474
H  -0.137987  -1.250608   0.869844
H   0.820564  -0.028019  -0.021521
H  -0.140923  -1.392119  -0.918110
