butane_opt
 OpenBabel08242015413D

 14 13  0  0  0  0  0  0  0  0999 V2000
   -3.9530    0.2401    0.0697 C   0  0  0  0  0  0  0  0  0  0  0  0
   -2.7128   -0.6106    0.0047 C   0  0  0  0  0  0  0  0  0  0  0  0
   -4.8170   -0.3027    0.0540 H   0  0  0  0  0  0  0  0  0  0  0  0
   -3.9925    0.8819   -0.8484 H   0  0  0  0  0  0  0  0  0  0  0  0
   -3.9041    0.8949    0.9621 H   0  0  0  0  0  0  0  0  0  0  0  0
   -1.4234    0.2258   -0.0481 C   0  0  0  0  0  0  0  0  0  0  0  0
   -2.7968   -1.3790   -0.8869 H   0  0  0  0  0  0  0  0  0  0  0  0
   -2.6920   -1.1041    0.8170 H   0  0  0  0  0  0  0  0  0  0  0  0
   -0.1270   -0.7207    0.0752 C   0  0  0  0  0  0  0  0  0  0  0  0
   -1.4622    0.8200    0.7711 H   0  0  0  0  0  0  0  0  0  0  0  0
   -1.3368    0.8703   -0.9969 H   0  0  0  0  0  0  0  0  0  0  0  0
   -0.1623   -1.2897    0.9412 H   0  0  0  0  0  0  0  0  0  0  0  0
    0.7306   -0.1442    0.1463 H   0  0  0  0  0  0  0  0  0  0  0  0
    0.0058   -1.3314   -0.7482 H   0  0  0  0  0  0  0  0  0  0  0  0
  1  5  1  0  0  0  0
  2  1  1  0  0  0  0
  2  8  1  0  0  0  0
  3  1  1  0  0  0  0
  4  1  1  0  0  0  0
  6  2  1  0  0  0  0
  6  9  1  0  0  0  0
  6 10  1  0  0  0  0
  7  2  1  0  0  0  0
  9 13  1  0  0  0  0
  9 12  1  0  0  0  0
 11  6  1  0  0  0  0
 14  9  1  0  0  0  0
M  END
$$$$
