14
butane_opt
C  -3.971205   0.266349   0.001011
C  -2.693421  -0.631999   0.030841
H  -4.798199  -0.222814   0.062512
H  -4.019416   0.898729  -0.932534
H  -3.991084   0.926588   0.870126
C  -1.405116   0.175632   0.043657
H  -2.614308  -1.301434  -0.801105
H  -2.775290  -1.313605   0.935359
C  -0.153920  -0.678730   0.016483
H  -1.335116   0.958963   0.996793
H  -1.325889   0.770471  -0.803667
H   0.039301  -1.421697   0.971092
H   0.749807  -0.124747  -0.196042
H  -0.277480  -1.199046  -0.745366
