butane_opt
 OpenBabel08242015413D

 14 13  0  0  0  0  0  0  0  0999 V2000
   -3.9384    0.2506   -0.0258 C   0  0  0  0  0  0  0  0  0  0  0  0
   -2.7384   -0.5938    0.0893 C   0  0  0  0  0  0  0  0  0  0  0  0
   -4.8537   -0.3202    0.0669 H   0  0  0  0  0  0  0  0  0  0  0  0
   -3.9284    0.9209   -0.9832 H   0  0  0  0  0  0  0  0  0  0  0  0
   -4.0249    0.8594    0.8030 H   0  0  0  0  0  0  0  0  0  0  0  0
   -1.4018    0.1908    0.0353 C   0  0  0  0  0  0  0  0  0  0  0  0
   -2.7920   -1.1863   -0.7000 H   0  0  0  0  0  0  0  0  0  0  0  0
   -2.7105   -1.3505    1.0215 H   0  0  0  0  0  0  0  0  0  0  0  0
   -0.1354   -0.7087   -0.0074 C   0  0  0  0  0  0  0  0  0  0  0  0
   -1.3593    0.9896    0.9943 H   0  0  0  0  0  0  0  0  0  0  0  0
   -1.4500    0.7821   -0.8420 H   0  0  0  0  0  0  0  0  0  0  0  0
   -0.1191   -1.1859    0.7718 H   0  0  0  0  0  0  0  0  0  0  0  0
    0.7992   -0.1447    0.1362 H   0  0  0  0  0  0  0  0  0  0  0  0
   -0.0206   -1.5000   -0.9464 H   0  0  0  0  0  0  0  0  0  0  0  0
  1  3  1  0  0  0  0
  1  2  1  0  0  0  0
  1  5  1  0  0  0  0
  2  8  1  0  0  0  0
  4  1  1  0  0  0  0
  6  2  1  0  0  0  0
  6 10  1  0  0  0  0
  7  2  1  0  0  0  0
  9  6  1  0  0  0  0
  9 13  1  0  0  0  0
  9 12  1  0  0  0  0
 11  6  1  0  0  0  0
 14  9  1  0  0  0  0
M  END
$$$$
