butane_opt
 OpenBabel08242015413D

 14 13  0  0  0  0  0  0  0  0999 V2000
   -3.9712    0.2663    0.0010 C   0  0  0  0  0  0  0  0  0  0  0  0
   -2.6934   -0.6320    0.0308 C   0  0  0  0  0  0  0  0  0  0  0  0
   -4.7982   -0.2228    0.0625 H   0  0  0  0  0  0  0  0  0  0  0  0
   -4.0194    0.8987   -0.9325 H   0  0  0  0  0  0  0  0  0  0  0  0
   -3.9911    0.9266    0.8701 H   0  0  0  0  0  0  0  0  0  0  0  0
   -1.4051    0.1756    0.0437 C   0  0  0  0  0  0  0  0  0  0  0  0
   -2.6143   -1.3014   -0.8011 H   0  0  0  0  0  0  0  0  0  0  0  0
   -2.7753   -1.3136    0.9354 H   0  0  0  0  0  0  0  0  0  0  0  0
   -0.1539   -0.6787    0.0165 C   0  0  0  0  0  0  0  0  0  0  0  0
   -1.3351    0.9590    0.9968 H   0  0  0  0  0  0  0  0  0  0  0  0
   -1.3259    0.7705   -0.8037 H   0  0  0  0  0  0  0  0  0  0  0  0
    0.0393   -1.4217    0.9711 H   0  0  0  0  0  0  0  0  0  0  0  0
    0.7498   -0.1247   -0.1960 H   0  0  0  0  0  0  0  0  0  0  0  0
   -0.2775   -1.1990   -0.7454 H   0  0  0  0  0  0  0  0  0  0  0  0
  1  2  1  0  0  0  0
  1  3  1  0  0  0  0
  1  5  1  0  0  0  0
  2  6  1  0  0  0  0
  2  8  1  0  0  0  0
  4  1  1  0  0  0  0
  6 10  1  0  0  0  0
  7  2  1  0  0  0  0
  9  6  1  0  0  0  0
  9 12  1  0  0  0  0
 11  6  1  0  0  0  0
 13  9  1  0  0  0  0
 14  9  1  0  0  0  0
M  END
$$$$
