butane_opt
 OpenBabel08242015413D

 14 13  0  0  0  0  0  0  0  0999 V2000
   -3.9638    0.2920   -0.0054 C   0  0  0  0  0  0  0  0  0  0  0  0
   -2.7136   -0.6281    0.0872 C   0  0  0  0  0  0  0  0  0  0  0  0
   -4.8005   -0.2418   -0.0817 H   0  0  0  0  0  0  0  0  0  0  0  0
   -3.8979    0.8704   -0.9241 H   0  0  0  0  0  0  0  0  0  0  0  0
   -4.0749    0.9196    0.8362 H   0  0  0  0  0  0  0  0  0  0  0  0
   -1.3803    0.1476    0.0324 C   0  0  0  0  0  0  0  0  0  0  0  0
   -2.7657   -1.3345   -0.7840 H   0  0  0  0  0  0  0  0  0  0  0  0
   -2.7136   -1.2745    0.9875 H   0  0  0  0  0  0  0  0  0  0  0  0
   -0.1557   -0.6719    0.0075 C   0  0  0  0  0  0  0  0  0  0  0  0
   -1.4123    0.8679    0.9097 H   0  0  0  0  0  0  0  0  0  0  0  0
   -1.3737    0.7420   -0.9075 H   0  0  0  0  0  0  0  0  0  0  0  0
   -0.1380   -1.2506    0.8698 H   0  0  0  0  0  0  0  0  0  0  0  0
    0.8206   -0.0280   -0.0215 H   0  0  0  0  0  0  0  0  0  0  0  0
   -0.1409   -1.3921   -0.9181 H   0  0  0  0  0  0  0  0  0  0  0  0
  1  2  1  0  0  0  0
  1  5  1  0  0  0  0
  2  8  1  0  0  0  0
  3  1  1  0  0  0  0
  4  1  1  0  0  0  0
  6  2  1  0  0  0  0
  6 10  1  0  0  0  0
  7  2  1  0  0  0  0
  9  6  1  0  0  0  0
  9 12  1  0  0  0  0
 11  6  1  0  0  0  0
 13  9  1  0  0  0  0
 14  9  1  0  0  0  0
M  END
$$$$
