14
butane_opt
C  -3.941431   0.263351  -0.046257
C  -2.687320  -0.624720   0.134459
H  -4.800071  -0.293524  -0.239514
H  -3.826111   0.852967  -0.924809
H  -4.151916   1.080623   0.878149
C  -1.406438   0.156484   0.053025
H  -2.580200  -1.188736  -0.672474
H  -2.732130  -1.297555   1.065790
C  -0.169562  -0.671775  -0.025929
H  -1.347766   0.861790   0.951761
H  -1.477559   0.724254  -0.779603
H  -0.171350  -1.194961   0.806578
H   0.783052  -0.070423  -0.120825
H  -0.257527  -1.423935  -0.909898
