14
butane_opt
C  -3.955785   0.250961  -0.054134
C  -2.711335  -0.593459   0.091803
H  -4.927939  -0.406517   0.037343
H  -3.884696   0.904997  -0.974316
H  -4.013226   0.862411   0.754886
C  -1.401529   0.208092   0.109209
H  -2.656037  -1.257363  -0.782955
H  -2.794203  -1.208578   1.004292
C  -0.142791  -0.722848  -0.020775
H  -1.244461   0.919263   0.966709
H  -1.462742   0.791815  -0.776949
H   0.085628  -1.367472   0.819614
H   0.728304  -0.145888  -0.265711
H  -0.294187  -1.288493  -0.835793
