14
butane_opt
C  -3.959558   0.281609  -0.010772
C  -2.701687  -0.641518   0.069232
H  -4.904186  -0.312218  -0.121994
H  -3.957999   0.949082  -0.945872
H  -4.076962   1.013570   0.824207
C  -1.394879   0.157824   0.066753
H  -2.712111  -1.309827  -0.793882
H  -2.651255  -1.310295   0.945904
C  -0.149320  -0.673232  -0.010176
H  -1.324255   0.912328   0.991197
H  -1.433202   0.768266  -0.797983
H  -0.064302  -1.415306   0.990888
H   0.813033  -0.054367  -0.217099
H  -0.252140  -1.204726  -0.809949
