butane_opt
 OpenBabel08242015413D

 14 13  0  0  0  0  0  0  0  0999 V2000
   -3.9479    0.2492    0.0497 C   0  0  0  0  0  0  0  0  0  0  0  0
   -2.7099   -0.6145    0.0241 C   0  0  0  0  0  0  0  0  0  0  0  0
   -4.8690   -0.3300    0.1208 H   0  0  0  0  0  0  0  0  0  0  0  0
   -3.9470    0.8412   -0.7970 H   0  0  0  0  0  0  0  0  0  0  0  0
   -3.9777    0.9276    0.9452 H   0  0  0  0  0  0  0  0  0  0  0  0
   -1.4060    0.2269   -0.0671 C   0  0  0  0  0  0  0  0  0  0  0  0
   -2.8086   -1.2488   -0.8200 H   0  0  0  0  0  0  0  0  0  0  0  0
   -2.6946   -1.2099    0.9305 H   0  0  0  0  0  0  0  0  0  0  0  0
   -0.1375   -0.7143    0.0663 C   0  0  0  0  0  0  0  0  0  0  0  0
   -1.4376    0.9122    0.7653 H   0  0  0  0  0  0  0  0  0  0  0  0
   -1.3094    0.7907   -0.9487 H   0  0  0  0  0  0  0  0  0  0  0  0
   -0.2932   -1.2562    0.9124 H   0  0  0  0  0  0  0  0  0  0  0  0
    0.7366   -0.1233    0.3036 H   0  0  0  0  0  0  0  0  0  0  0  0
    0.0088   -1.5608   -0.8597 H   0  0  0  0  0  0  0  0  0  0  0  0
  1  3  1  0  0  0  0
  1  5  1  0  0  0  0
  2  1  1  0  0  0  0
  2  8  1  0  0  0  0
  4  1  1  0  0  0  0
  6  2  1  0  0  0  0
  6  9  1  0  0  0  0
  6 10  1  0  0  0  0
  7  2  1  0  0  0  0
  9 13  1  0  0  0  0
  9 12  1  0  0  0  0
 11  6  1  0  0  0  0
 14  9  1  0  0  0  0
M  END
$$$$
