butane_opt
 OpenBabel08242015413D

 14 13  0  0  0  0  0  0  0  0999 V2000
   -3.9507    0.2643    0.0096 C   0  0  0  0  0  0  0  0  0  0  0  0
   -2.6958   -0.6106    0.0475 C   0  0  0  0  0  0  0  0  0  0  0  0
   -4.8255   -0.2951    0.0405 H   0  0  0  0  0  0  0  0  0  0  0  0
   -3.9676    0.8918   -0.8902 H   0  0  0  0  0  0  0  0  0  0  0  0
   -3.9785    0.9143    0.8558 H   0  0  0  0  0  0  0  0  0  0  0  0
   -1.4009    0.1751    0.0089 C   0  0  0  0  0  0  0  0  0  0  0  0
   -2.6794   -1.2525   -0.7390 H   0  0  0  0  0  0  0  0  0  0  0  0
   -2.7060   -1.3074    0.9892 H   0  0  0  0  0  0  0  0  0  0  0  0
   -0.1631   -0.6899    0.0249 C   0  0  0  0  0  0  0  0  0  0  0  0
   -1.4094    0.8465    0.8603 H   0  0  0  0  0  0  0  0  0  0  0  0
   -1.3969    0.7726   -0.8546 H   0  0  0  0  0  0  0  0  0  0  0  0
   -0.1624   -1.2062    0.8475 H   0  0  0  0  0  0  0  0  0  0  0  0
    0.7618   -0.0544    0.1085 H   0  0  0  0  0  0  0  0  0  0  0  0
   -0.1396   -1.4393   -0.8805 H   0  0  0  0  0  0  0  0  0  0  0  0
  1  3  1  0  0  0  0
  1  2  1  0  0  0  0
  1  5  1  0  0  0  0
  2  8  1  0  0  0  0
  4  1  1  0  0  0  0
  6  9  1  0  0  0  0
  6  2  1  0  0  0  0
  6 10  1  0  0  0  0
  7  2  1  0  0  0  0
  9 13  1  0  0  0  0
  9 12  1  0  0  0  0
 11  6  1  0  0  0  0
 14  9  1  0  0  0  0
M  END
$$$$
