butane_opt
 OpenBabel08242015413D

 14 13  0  0  0  0  0  0  0  0999 V2000
   -3.9134    0.2442   -0.0234 C   0  0  0  0  0  0  0  0  0  0  0  0
   -2.6935   -0.5895    0.0925 C   0  0  0  0  0  0  0  0  0  0  0  0
   -4.8418   -0.3226    0.1067 H   0  0  0  0  0  0  0  0  0  0  0  0
   -3.9923    1.0619   -1.0435 H   0  0  0  0  0  0  0  0  0  0  0  0
   -3.9590    0.6875    0.6464 H   0  0  0  0  0  0  0  0  0  0  0  0
   -1.4219    0.1992    0.0667 C   0  0  0  0  0  0  0  0  0  0  0  0
   -2.7310   -1.3172   -0.7957 H   0  0  0  0  0  0  0  0  0  0  0  0
   -2.7431   -1.2069    1.0188 H   0  0  0  0  0  0  0  0  0  0  0  0
   -0.1742   -0.7099   -0.0192 C   0  0  0  0  0  0  0  0  0  0  0  0
   -1.4079    0.9333    0.9736 H   0  0  0  0  0  0  0  0  0  0  0  0
   -1.3665    0.7723   -0.8053 H   0  0  0  0  0  0  0  0  0  0  0  0
   -0.1092   -1.1968    0.7908 H   0  0  0  0  0  0  0  0  0  0  0  0
    0.7389   -0.0972    0.0367 H   0  0  0  0  0  0  0  0  0  0  0  0
   -0.1641   -1.5173   -0.9355 H   0  0  0  0  0  0  0  0  0  0  0  0
  1  2  1  0  0  0  0
  1  3  1  0  0  0  0
  1  5  1  0  0  0  0
  2  8  1  0  0  0  0
  4  1  1  0  0  0  0
  6  2  1  0  0  0  0
  6 10  1  0  0  0  0
  7  2  1  0  0  0  0
  9 13  1  0  0  0  0
  9  6  1  0  0  0  0
  9 12  1  0  0  0  0
 11  6  1  0  0  0  0
 14  9  1  0  0  0  0
M  END
$$$$
