14
butane_opt
C  -3.955122   0.275718   0.035169
C  -2.681861  -0.626422   0.013423
H  -4.856183  -0.296547  -0.033159
H  -3.903287   0.679445  -0.712545
H  -3.950475   1.119659   1.041614
C  -1.401404   0.158753  -0.027582
H  -2.622338  -1.268804  -0.833375
H  -2.637290  -1.300786   0.913824
C  -0.184694  -0.687435   0.064030
H  -1.351024   0.865101   0.822515
H  -1.407741   0.902828  -0.976650
H  -0.214361  -1.351551   0.999433
H   0.753820  -0.042194   0.001377
H  -0.162934  -1.235087  -0.764391
