butane_opt
 OpenBabel08242015413D

 14 13  0  0  0  0  0  0  0  0999 V2000
   -3.9142    0.2461    0.0680 C   0  0  0  0  0  0  0  0  0  0  0  0
   -2.7061   -0.5961   -0.0243 C   0  0  0  0  0  0  0  0  0  0  0  0
   -4.8421   -0.3655    0.0258 H   0  0  0  0  0  0  0  0  0  0  0  0
   -3.9641    0.7412   -0.7576 H   0  0  0  0  0  0  0  0  0  0  0  0
   -3.9666    1.0325    0.9958 H   0  0  0  0  0  0  0  0  0  0  0  0
   -1.4217    0.2011   -0.0246 C   0  0  0  0  0  0  0  0  0  0  0  0
   -2.7065   -1.3491   -0.9345 H   0  0  0  0  0  0  0  0  0  0  0  0
   -2.7591   -1.2201    0.8109 H   0  0  0  0  0  0  0  0  0  0  0  0
   -0.1547   -0.7038    0.0705 C   0  0  0  0  0  0  0  0  0  0  0  0
   -1.4706    0.9205    0.8311 H   0  0  0  0  0  0  0  0  0  0  0  0
   -1.4699    0.8407   -0.9221 H   0  0  0  0  0  0  0  0  0  0  0  0
   -0.1068   -1.5597    1.1298 H   0  0  0  0  0  0  0  0  0  0  0  0
    0.7387   -0.1753   -0.1632 H   0  0  0  0  0  0  0  0  0  0  0  0
   -0.1092   -1.1005   -0.6026 H   0  0  0  0  0  0  0  0  0  0  0  0
  1  5  1  0  0  0  0
  2  1  1  0  0  0  0
  2  8  1  0  0  0  0
  3  1  1  0  0  0  0
  4  1  1  0  0  0  0
  6  2  1  0  0  0  0
  6  9  1  0  0  0  0
  6 10  1  0  0  0  0
  7  2  1  0  0  0  0
  9 12  1  0  0  0  0
 11  6  1  0  0  0  0
 13  9  1  0  0  0  0
 14  9  1  0  0  0  0
M  END
$$$$
