butane_opt
 OpenBabel08242015413D

 14 13  0  0  0  0  0  0  0  0999 V2000
   -3.9652    0.2931    0.0429 C   0  0  0  0  0  0  0  0  0  0  0  0
   -2.6982   -0.6489   -0.0008 C   0  0  0  0  0  0  0  0  0  0  0  0
   -4.8679   -0.2508   -0.0729 H   0  0  0  0  0  0  0  0  0  0  0  0
   -3.9862    0.7616   -0.7349 H   0  0  0  0  0  0  0  0  0  0  0  0
   -4.0466    1.0557    0.9862 H   0  0  0  0  0  0  0  0  0  0  0  0
   -1.3874    0.1581   -0.0068 C   0  0  0  0  0  0  0  0  0  0  0  0
   -2.8154   -1.2979   -0.8368 H   0  0  0  0  0  0  0  0  0  0  0  0
   -2.6471   -1.2376    0.8158 H   0  0  0  0  0  0  0  0  0  0  0  0
   -0.1651   -0.6726    0.0568 C   0  0  0  0  0  0  0  0  0  0  0  0
   -1.3550    0.8293    0.8657 H   0  0  0  0  0  0  0  0  0  0  0  0
   -1.3113    0.7898   -0.9030 H   0  0  0  0  0  0  0  0  0  0  0  0
   -0.0590   -1.4739    1.0887 H   0  0  0  0  0  0  0  0  0  0  0  0
    0.7645   -0.0744   -0.1954 H   0  0  0  0  0  0  0  0  0  0  0  0
   -0.1317   -1.1192   -0.6578 H   0  0  0  0  0  0  0  0  0  0  0  0
  1  5  1  0  0  0  0
  2  1  1  0  0  0  0
  2  8  1  0  0  0  0
  3  1  1  0  0  0  0
  4  1  1  0  0  0  0
  6  2  1  0  0  0  0
  6  9  1  0  0  0  0
  6 10  1  0  0  0  0
  7  2  1  0  0  0  0
  9 12  1  0  0  0  0
 11  6  1  0  0  0  0
 13  9  1  0  0  0  0
 14  9  1  0  0  0  0
M  END
$$$$
