butane_opt
 OpenBabel08242015413D

 14 13  0  0  0  0  0  0  0  0999 V2000
   -3.9596    0.2816   -0.0108 C   0  0  0  0  0  0  0  0  0  0  0  0
   -2.7017   -0.6415    0.0692 C   0  0  0  0  0  0  0  0  0  0  0  0
   -4.9042   -0.3122   -0.1220 H   0  0  0  0  0  0  0  0  0  0  0  0
   -3.9580    0.9491   -0.9459 H   0  0  0  0  0  0  0  0  0  0  0  0
   -4.0770    1.0136    0.8242 H   0  0  0  0  0  0  0  0  0  0  0  0
   -1.3949    0.1578    0.0668 C   0  0  0  0  0  0  0  0  0  0  0  0
   -2.7121   -1.3098   -0.7939 H   0  0  0  0  0  0  0  0  0  0  0  0
   -2.6513   -1.3103    0.9459 H   0  0  0  0  0  0  0  0  0  0  0  0
   -0.1493   -0.6732   -0.0102 C   0  0  0  0  0  0  0  0  0  0  0  0
   -1.3243    0.9123    0.9912 H   0  0  0  0  0  0  0  0  0  0  0  0
   -1.4332    0.7683   -0.7980 H   0  0  0  0  0  0  0  0  0  0  0  0
   -0.0643   -1.4153    0.9909 H   0  0  0  0  0  0  0  0  0  0  0  0
    0.8130   -0.0544   -0.2171 H   0  0  0  0  0  0  0  0  0  0  0  0
   -0.2521   -1.2047   -0.8099 H   0  0  0  0  0  0  0  0  0  0  0  0
  1  2  1  0  0  0  0
  1  5  1  0  0  0  0
  2  8  1  0  0  0  0
  3  1  1  0  0  0  0
  4  1  1  0  0  0  0
  6  2  1  0  0  0  0
  6 10  1  0  0  0  0
  7  2  1  0  0  0  0
  9  6  1  0  0  0  0
  9 12  1  0  0  0  0
 11  6  1  0  0  0  0
 13  9  1  0  0  0  0
 14  9  1  0  0  0  0
M  END
$$$$
