14
butane_opt
C  -3.947930   0.249208   0.049716
C  -2.709937  -0.614523   0.024075
H  -4.869000  -0.329988   0.120771
H  -3.947007   0.841242  -0.796979
H  -3.977657   0.927566   0.945203
C  -1.406041   0.226880  -0.067142
H  -2.808604  -1.248834  -0.819975
H  -2.694561  -1.209892   0.930484
C  -0.137508  -0.714301   0.066296
H  -1.437576   0.912160   0.765274
H  -1.309418   0.790694  -0.948651
H  -0.293233  -1.256215   0.912420
H   0.736595  -0.123263   0.303597
H   0.008759  -1.560766  -0.859741
