14
butane_opt
C  -3.965233   0.293087   0.042913
C  -2.698186  -0.648863  -0.000754
H  -4.867888  -0.250803  -0.072879
H  -3.986169   0.761572  -0.734853
H  -4.046619   1.055682   0.986237
C  -1.387414   0.158073  -0.006781
H  -2.815352  -1.297941  -0.836820
H  -2.647139  -1.237622   0.815777
C  -0.165118  -0.672577   0.056759
H  -1.354994   0.829322   0.865699
H  -1.311252   0.789775  -0.902993
H  -0.059050  -1.473860   1.088721
H   0.764532  -0.074448  -0.195442
H  -0.131734  -1.119222  -0.657777
