butane_opt
 OpenBabel08242015413D

 14 13  0  0  0  0  0  0  0  0999 V2000
   -3.9271    0.2495   -0.0496 C   0  0  0  0  0  0  0  0  0  0  0  0
   -2.6806   -0.6017    0.1022 C   0  0  0  0  0  0  0  0  0  0  0  0
   -4.8783   -0.3790   -0.0196 H   0  0  0  0  0  0  0  0  0  0  0  0
   -3.8827    0.8650   -0.9538 H   0  0  0  0  0  0  0  0  0  0  0  0
   -3.9489    0.9864    0.8561 H   0  0  0  0  0  0  0  0  0  0  0  0
   -1.4188    0.1929    0.0736 C   0  0  0  0  0  0  0  0  0  0  0  0
   -2.6852   -1.2533   -0.7114 H   0  0  0  0  0  0  0  0  0  0  0  0
   -2.8059   -1.3038    1.0590 H   0  0  0  0  0  0  0  0  0  0  0  0
   -0.1801   -0.7005   -0.0244 C   0  0  0  0  0  0  0  0  0  0  0  0
   -1.3808    0.9240    0.9329 H   0  0  0  0  0  0  0  0  0  0  0  0
   -1.4166    0.8198   -0.8091 H   0  0  0  0  0  0  0  0  0  0  0  0
   -0.0492   -1.2782    0.8422 H   0  0  0  0  0  0  0  0  0  0  0  0
    0.6581   -0.1198   -0.0871 H   0  0  0  0  0  0  0  0  0  0  0  0
   -0.1492   -1.4262   -0.8960 H   0  0  0  0  0  0  0  0  0  0  0  0
  1  3  1  0  0  0  0
  1  2  1  0  0  0  0
  1  5  1  0  0  0  0
  2  8  1  0  0  0  0
  4  1  1  0  0  0  0
  6  2  1  0  0  0  0
  6 10  1  0  0  0  0
  7  2  1  0  0  0  0
  9  6  1  0  0  0  0
  9 12  1  0  0  0  0
 11  6  1  0  0  0  0
 13  9  1  0  0  0  0
 14  9  1  0  0  0  0
M  END
$$$$
