butane_opt
 OpenBabel08242015413D

 14 13  0  0  0  0  0  0  0  0999 V2000
   -3.9283    0.2821    0.0522 C   0  0  0  0  0  0  0  0  0  0  0  0
   -2.6853   -0.6430   -0.0117 C   0  0  0  0  0  0  0  0  0  0  0  0
   -4.7968   -0.2576    0.0615 H   0  0  0  0  0  0  0  0  0  0  0  0
   -4.0897    0.8060   -0.7778 H   0  0  0  0  0  0  0  0  0  0  0  0
   -3.9960    1.0599    0.9599 H   0  0  0  0  0  0  0  0  0  0  0  0
   -1.4203    0.1600   -0.0192 C   0  0  0  0  0  0  0  0  0  0  0  0
   -2.7105   -1.4431   -0.9307 H   0  0  0  0  0  0  0  0  0  0  0  0
   -2.6695   -1.1803    0.8225 H   0  0  0  0  0  0  0  0  0  0  0  0
   -0.1714   -0.6656    0.0678 C   0  0  0  0  0  0  0  0  0  0  0  0
   -1.4076    0.8802    0.8350 H   0  0  0  0  0  0  0  0  0  0  0  0
   -1.3301    0.7644   -0.8762 H   0  0  0  0  0  0  0  0  0  0  0  0
   -0.1211   -1.5970    1.1434 H   0  0  0  0  0  0  0  0  0  0  0  0
    0.7763    0.0069   -0.1820 H   0  0  0  0  0  0  0  0  0  0  0  0
   -0.2246   -1.0990   -0.6472 H   0  0  0  0  0  0  0  0  0  0  0  0
  1  3  1  0  0  0  0
  1  5  1  0  0  0  0
  2  1  1  0  0  0  0
  2  8  1  0  0  0  0
  4  1  1  0  0  0  0
  6  2  1  0  0  0  0
  6  9  1  0  0  0  0
  6 10  1  0  0  0  0
  7  2  1  0  0  0  0
  9 12  1  0  0  0  0
 11  6  1  0  0  0  0
 13  9  1  0  0  0  0
 14  9  1  0  0  0  0
M  END
$$$$
