14
butane_opt
C  -3.927117   0.249485  -0.049612
C  -2.680642  -0.601658   0.102243
H  -4.878303  -0.379018  -0.019586
H  -3.882672   0.865008  -0.953829
H  -3.948915   0.986445   0.856126
C  -1.418771   0.192921   0.073645
H  -2.685226  -1.253256  -0.711408
H  -2.805918  -1.303773   1.058989
C  -0.180130  -0.700455  -0.024370
H  -1.380799   0.923995   0.932948
H  -1.416622   0.819755  -0.809080
H  -0.049198  -1.278235   0.842163
H   0.658144  -0.119765  -0.087050
H  -0.149210  -1.426223  -0.896023
