14
butane_opt
C  -3.991429   0.272349   0.063325
C  -2.682922  -0.625156  -0.014754
H  -4.862636  -0.317886   0.216826
H  -4.083453   0.979374  -0.920170
H  -3.843694   0.835055   0.857436
C  -1.390609   0.180194  -0.032512
H  -2.839604  -1.360470  -0.903728
H  -2.597680  -1.223354   0.808180
C  -0.150819  -0.684747   0.075673
H  -1.415157   0.893421   0.845953
H  -1.350898   0.805438  -0.907773
H  -0.165231  -1.338892   1.037796
H   0.794417  -0.073792   0.112207
H  -0.087327  -1.369309  -0.826667
