butane_opt
 OpenBabel08242015413D

 14 13  0  0  0  0  0  0  0  0999 V2000
   -3.9676    0.2864    0.0037 C   0  0  0  0  0  0  0  0  0  0  0  0
   -2.6945   -0.6573    0.0707 C   0  0  0  0  0  0  0  0  0  0  0  0
   -4.8136   -0.1926    0.1060 H   0  0  0  0  0  0  0  0  0  0  0  0
   -3.9703    0.9333   -0.9386 H   0  0  0  0  0  0  0  0  0  0  0  0
   -4.0818    0.9043    0.8136 H   0  0  0  0  0  0  0  0  0  0  0  0
   -1.3919    0.1731    0.0035 C   0  0  0  0  0  0  0  0  0  0  0  0
   -2.8065   -1.3828   -0.8017 H   0  0  0  0  0  0  0  0  0  0  0  0
   -2.6376   -1.3226    0.9987 H   0  0  0  0  0  0  0  0  0  0  0  0
   -0.1533   -0.6753    0.0282 C   0  0  0  0  0  0  0  0  0  0  0  0
   -1.4018    0.8773    0.8275 H   0  0  0  0  0  0  0  0  0  0  0  0
   -1.4026    0.8455   -0.8989 H   0  0  0  0  0  0  0  0  0  0  0  0
   -0.1858   -1.0938    0.7822 H   0  0  0  0  0  0  0  0  0  0  0  0
    0.8153   -0.0394    0.2068 H   0  0  0  0  0  0  0  0  0  0  0  0
   -0.0713   -1.5092   -0.9525 H   0  0  0  0  0  0  0  0  0  0  0  0
  1  2  1  0  0  0  0
  1  3  1  0  0  0  0
  1  5  1  0  0  0  0
  2  8  1  0  0  0  0
  4  1  1  0  0  0  0
  6  9  1  0  0  0  0
  6  2  1  0  0  0  0
  6 10  1  0  0  0  0
  7  2  1  0  0  0  0
  9 13  1  0  0  0  0
  9 12  1  0  0  0  0
 11  6  1  0  0  0  0
 14  9  1  0  0  0  0
M  END
$$$$
