14
butane_opt
C  -3.960836   0.283217  -0.023493
C  -2.696501  -0.658639   0.120916
H  -4.876009  -0.291107   0.024071
H  -3.990483   1.021117  -0.989938
H  -4.071809   0.841537   0.757621
C  -1.375153   0.183779   0.025891
H  -2.634209  -1.277971  -0.716903
H  -2.767958  -1.228490   0.996394
C  -0.169619  -0.677539  -0.012740
H  -1.288897   0.862948   0.902348
H  -1.446469   0.816588  -0.856352
H  -0.232911  -1.051820   0.726947
H   0.719360  -0.095986   0.242914
H  -0.009688  -1.651207  -1.008596
