14
butane_opt
C  -3.979238   0.281329  -0.016807
C  -2.683010  -0.635244   0.082212
H  -4.838545  -0.232627  -0.153364
H  -3.913119   0.834495  -0.882529
H  -4.095100   0.907725   0.848324
C  -1.395543   0.169908   0.048499
H  -2.721818  -1.251165  -0.752121
H  -2.706585  -1.329982   1.008007
C  -0.148231  -0.681473  -0.016636
H  -1.381262   0.940255   0.968743
H  -1.360576   0.717159  -0.761180
H  -0.101210  -1.364778   0.944441
H   0.779820  -0.037351  -0.122743
H  -0.224337  -1.261883  -0.828537
