14
butane_opt
C  -3.919091   0.256178   0.029721
C  -2.710951  -0.595809   0.030333
H  -4.892178  -0.391788  -0.047445
H  -3.952449   0.830933  -0.849275
H  -3.980962   0.981373   0.920361
C  -1.421973   0.188404   0.001764
H  -2.693799  -1.337262  -0.889973
H  -2.684542  -1.250932   0.902440
C  -0.150502  -0.705896   0.040971
H  -1.418738   0.960475   0.883327
H  -1.431392   0.780324  -0.832792
H  -0.111206  -1.501387   1.029654
H   0.776338  -0.035929  -0.160144
H  -0.192464  -1.226278  -0.730328
