butane_opt
 OpenBabel08242015413D

 14 13  0  0  0  0  0  0  0  0999 V2000
   -3.9191    0.2562    0.0297 C   0  0  0  0  0  0  0  0  0  0  0  0
   -2.7110   -0.5958    0.0303 C   0  0  0  0  0  0  0  0  0  0  0  0
   -4.8922   -0.3918   -0.0474 H   0  0  0  0  0  0  0  0  0  0  0  0
   -3.9524    0.8309   -0.8493 H   0  0  0  0  0  0  0  0  0  0  0  0
   -3.9810    0.9814    0.9204 H   0  0  0  0  0  0  0  0  0  0  0  0
   -1.4220    0.1884    0.0018 C   0  0  0  0  0  0  0  0  0  0  0  0
   -2.6938   -1.3373   -0.8900 H   0  0  0  0  0  0  0  0  0  0  0  0
   -2.6845   -1.2509    0.9024 H   0  0  0  0  0  0  0  0  0  0  0  0
   -0.1505   -0.7059    0.0410 C   0  0  0  0  0  0  0  0  0  0  0  0
   -1.4187    0.9605    0.8833 H   0  0  0  0  0  0  0  0  0  0  0  0
   -1.4314    0.7803   -0.8328 H   0  0  0  0  0  0  0  0  0  0  0  0
   -0.1112   -1.5014    1.0297 H   0  0  0  0  0  0  0  0  0  0  0  0
    0.7763   -0.0359   -0.1601 H   0  0  0  0  0  0  0  0  0  0  0  0
   -0.1925   -1.2263   -0.7303 H   0  0  0  0  0  0  0  0  0  0  0  0
  1  2  1  0  0  0  0
  1  5  1  0  0  0  0
  2  8  1  0  0  0  0
  3  1  1  0  0  0  0
  4  1  1  0  0  0  0
  6  2  1  0  0  0  0
  6  9  1  0  0  0  0
  6 10  1  0  0  0  0
  7  2  1  0  0  0  0
  9 12  1  0  0  0  0
 11  6  1  0  0  0  0
 13  9  1  0  0  0  0
 14  9  1  0  0  0  0
M  END
$$$$
