14
butane_opt
C  -3.948386   0.248510  -0.032698
C  -2.685344  -0.606076   0.104429
H  -4.841722  -0.374931  -0.180109
H  -3.805407   0.889296  -0.925413
H  -4.072747   0.991743   0.863528
C  -1.404967   0.190332   0.066493
H  -2.626152  -1.229832  -0.674735
H  -2.770930  -1.269677   1.066522
C  -0.172926  -0.689349  -0.013768
H  -1.444163   0.824152   0.901927
H  -1.418542   0.813504  -0.851307
H  -0.032939  -1.224481   0.798199
H   0.719596  -0.141963  -0.111338
H  -0.190920  -1.470176  -0.954480
