14
butane_opt
C  -3.962715   0.286394   0.060814
C  -2.689232  -0.656409  -0.023676
H  -4.874473  -0.285435   0.000199
H  -4.037395   0.864495  -0.808293
H  -3.999153   1.067730   1.031552
C  -1.398881   0.177716  -0.015473
H  -2.771000  -1.495073  -0.942722
H  -2.586385  -1.192114   0.794517
C  -0.169625  -0.680392   0.078218
H  -1.330209   0.854465   0.841298
H  -1.304482   0.831546  -0.938665
H  -0.041292  -1.532306   1.134862
H   0.740708  -0.044375  -0.246165
H  -0.181858  -1.052525  -0.599722
