butane_opt
 OpenBabel08242015413D

 14 13  0  0  0  0  0  0  0  0999 V2000
   -3.9588    0.2791    0.0645 C   0  0  0  0  0  0  0  0  0  0  0  0
   -2.7040   -0.6466    0.0174 C   0  0  0  0  0  0  0  0  0  0  0  0
   -4.8609   -0.3373   -0.0011 H   0  0  0  0  0  0  0  0  0  0  0  0
   -3.9120    0.8439   -0.8145 H   0  0  0  0  0  0  0  0  0  0  0  0
   -4.0628    0.9567    0.9431 H   0  0  0  0  0  0  0  0  0  0  0  0
   -1.3948    0.1951   -0.0522 C   0  0  0  0  0  0  0  0  0  0  0  0
   -2.7707   -1.3403   -0.8420 H   0  0  0  0  0  0  0  0  0  0  0  0
   -2.6206   -1.2266    0.8691 H   0  0  0  0  0  0  0  0  0  0  0  0
   -0.1594   -0.6902    0.0759 C   0  0  0  0  0  0  0  0  0  0  0  0
   -1.3940    0.7907    0.7229 H   0  0  0  0  0  0  0  0  0  0  0  0
   -1.4187    0.9196   -0.9578 H   0  0  0  0  0  0  0  0  0  0  0  0
   -0.1561   -1.1760    0.8773 H   0  0  0  0  0  0  0  0  0  0  0  0
    0.7333   -0.1418    0.2144 H   0  0  0  0  0  0  0  0  0  0  0  0
    0.0362   -1.4147   -0.8413 H   0  0  0  0  0  0  0  0  0  0  0  0
  1  5  1  0  0  0  0
  2  1  1  0  0  0  0
  2  8  1  0  0  0  0
  3  1  1  0  0  0  0
  4  1  1  0  0  0  0
  6  2  1  0  0  0  0
  6  9  1  0  0  0  0
  6 10  1  0  0  0  0
  7  2  1  0  0  0  0
  9 13  1  0  0  0  0
  9 12  1  0  0  0  0
 11  6  1  0  0  0  0
 14  9  1  0  0  0  0
M  END
$$$$
