butane_opt
 OpenBabel08242015413D

 14 13  0  0  0  0  0  0  0  0999 V2000
   -3.9419    0.2743    0.0280 C   0  0  0  0  0  0  0  0  0  0  0  0
   -2.6881   -0.6317    0.0270 C   0  0  0  0  0  0  0  0  0  0  0  0
   -4.8368   -0.2799   -0.0535 H   0  0  0  0  0  0  0  0  0  0  0  0
   -3.9550    0.7799   -0.7825 H   0  0  0  0  0  0  0  0  0  0  0  0
   -4.0201    1.0565    0.9579 H   0  0  0  0  0  0  0  0  0  0  0  0
   -1.3979    0.1745   -0.0073 C   0  0  0  0  0  0  0  0  0  0  0  0
   -2.7599   -1.2652   -0.8100 H   0  0  0  0  0  0  0  0  0  0  0  0
   -2.6997   -1.2769    0.9299 H   0  0  0  0  0  0  0  0  0  0  0  0
   -0.1776   -0.6852    0.0479 C   0  0  0  0  0  0  0  0  0  0  0  0
   -1.4168    0.8302    0.8213 H   0  0  0  0  0  0  0  0  0  0  0  0
   -1.3568    0.8349   -0.9011 H   0  0  0  0  0  0  0  0  0  0  0  0
   -0.1266   -1.3747    0.9579 H   0  0  0  0  0  0  0  0  0  0  0  0
    0.7784   -0.0308   -0.0175 H   0  0  0  0  0  0  0  0  0  0  0  0
   -0.1737   -1.3238   -0.7944 H   0  0  0  0  0  0  0  0  0  0  0  0
  1  5  1  0  0  0  0
  2  1  1  0  0  0  0
  2  8  1  0  0  0  0
  3  1  1  0  0  0  0
  4  1  1  0  0  0  0
  6  2  1  0  0  0  0
  6  9  1  0  0  0  0
  6 10  1  0  0  0  0
  7  2  1  0  0  0  0
  9 12  1  0  0  0  0
 11  6  1  0  0  0  0
 13  9  1  0  0  0  0
 14  9  1  0  0  0  0
M  END
$$$$
