14
butane_opt
C  -3.976574   0.274099  -0.015218
C  -2.702317  -0.631738   0.068737
H  -4.823884  -0.249961   0.020723
H  -4.042135   0.978585  -0.973404
H  -4.081929   0.883813   0.755619
C  -1.386592   0.157461   0.072880
H  -2.636105  -1.373076  -0.797894
H  -2.695424  -1.240716   0.928069
C  -0.143555  -0.682887  -0.018744
H  -1.320281   0.955969   1.004154
H  -1.423103   0.772543  -0.805311
H  -0.055446  -1.397140   0.937490
H   0.797285  -0.006196  -0.136041
H  -0.238894  -1.186858  -0.774934
