14
butane_opt
C  -3.953291   0.273085  -0.021445
C  -2.715561  -0.606585   0.069097
H  -4.930240  -0.396012   0.117994
H  -4.059723   0.928854  -0.979356
H  -3.900390   0.791492   0.787855
C  -1.397987   0.186494   0.048026
H  -2.757606  -1.181465  -0.732002
H  -2.780357  -1.322552   1.067788
C  -0.138682  -0.695059  -0.011076
H  -1.309998   0.903808   0.935985
H  -1.393596   0.821227  -0.856386
H  -0.157479  -1.196470   0.830769
H   0.740439  -0.140124   0.187221
H  -0.005671  -1.588928  -0.968602
