butane_opt
 OpenBabel08242015413D

 14 13  0  0  0  0  0  0  0  0999 V2000
   -3.9533    0.2731   -0.0214 C   0  0  0  0  0  0  0  0  0  0  0  0
   -2.7156   -0.6066    0.0691 C   0  0  0  0  0  0  0  0  0  0  0  0
   -4.9302   -0.3960    0.1180 H   0  0  0  0  0  0  0  0  0  0  0  0
   -4.0597    0.9289   -0.9794 H   0  0  0  0  0  0  0  0  0  0  0  0
   -3.9004    0.7915    0.7879 H   0  0  0  0  0  0  0  0  0  0  0  0
   -1.3980    0.1865    0.0480 C   0  0  0  0  0  0  0  0  0  0  0  0
   -2.7576   -1.1815   -0.7320 H   0  0  0  0  0  0  0  0  0  0  0  0
   -2.7804   -1.3226    1.0678 H   0  0  0  0  0  0  0  0  0  0  0  0
   -0.1387   -0.6951   -0.0111 C   0  0  0  0  0  0  0  0  0  0  0  0
   -1.3100    0.9038    0.9360 H   0  0  0  0  0  0  0  0  0  0  0  0
   -1.3936    0.8212   -0.8564 H   0  0  0  0  0  0  0  0  0  0  0  0
   -0.1575   -1.1965    0.8308 H   0  0  0  0  0  0  0  0  0  0  0  0
    0.7404   -0.1401    0.1872 H   0  0  0  0  0  0  0  0  0  0  0  0
   -0.0057   -1.5889   -0.9686 H   0  0  0  0  0  0  0  0  0  0  0  0
  1  2  1  0  0  0  0
  1  3  1  0  0  0  0
  1  5  1  0  0  0  0
  2  8  1  0  0  0  0
  4  1  1  0  0  0  0
  6  2  1  0  0  0  0
  6 10  1  0  0  0  0
  7  2  1  0  0  0  0
  9  6  1  0  0  0  0
  9 13  1  0  0  0  0
  9 12  1  0  0  0  0
 11  6  1  0  0  0  0
 14  9  1  0  0  0  0
M  END
$$$$
