14
butane_opt
C  -3.953948   0.247323   0.001213
C  -2.714858  -0.596205   0.078132
H  -4.907644  -0.411872  -0.004873
H  -3.913931   0.908649  -0.902628
H  -4.022833   0.921712   0.860176
C  -1.404416   0.205939   0.008199
H  -2.758685  -1.234727  -0.765422
H  -2.820363  -1.276414   0.997854
C  -0.114949  -0.720118   0.025945
H  -1.444821   0.865081   0.818893
H  -1.384978   0.921818  -0.898736
H  -0.138669  -1.086210   0.778957
H   0.756229  -0.150216   0.133700
H  -0.107188  -1.596981  -0.965971
