butane_opt
 OpenBabel08242015413D

 14 13  0  0  0  0  0  0  0  0999 V2000
   -3.9316    0.2404    0.0573 C   0  0  0  0  0  0  0  0  0  0  0  0
   -2.6938   -0.5736   -0.0192 C   0  0  0  0  0  0  0  0  0  0  0  0
   -4.8496   -0.3953    0.1826 H   0  0  0  0  0  0  0  0  0  0  0  0
   -4.0354    0.8835   -0.8438 H   0  0  0  0  0  0  0  0  0  0  0  0
   -3.8577    0.8662    0.9388 H   0  0  0  0  0  0  0  0  0  0  0  0
   -1.4290    0.1959   -0.0232 C   0  0  0  0  0  0  0  0  0  0  0  0
   -2.7878   -1.3258   -0.9089 H   0  0  0  0  0  0  0  0  0  0  0  0
   -2.6368   -1.2191    0.8324 H   0  0  0  0  0  0  0  0  0  0  0  0
   -0.1575   -0.7186    0.0691 C   0  0  0  0  0  0  0  0  0  0  0  0
   -1.4063    0.8560    0.8293 H   0  0  0  0  0  0  0  0  0  0  0  0
   -1.4047    0.8724   -0.9386 H   0  0  0  0  0  0  0  0  0  0  0  0
   -0.2419   -1.3281    1.0021 H   0  0  0  0  0  0  0  0  0  0  0  0
    0.7725   -0.1258    0.0641 H   0  0  0  0  0  0  0  0  0  0  0  0
   -0.0195   -1.2800   -0.7307 H   0  0  0  0  0  0  0  0  0  0  0  0
  1  3  1  0  0  0  0
  1  5  1  0  0  0  0
  2  1  1  0  0  0  0
  2  8  1  0  0  0  0
  4  1  1  0  0  0  0
  6  2  1  0  0  0  0
  6  9  1  0  0  0  0
  6 10  1  0  0  0  0
  7  2  1  0  0  0  0
  9 12  1  0  0  0  0
 11  6  1  0  0  0  0
 13  9  1  0  0  0  0
 14  9  1  0  0  0  0
M  END
$$$$
