14
butane_opt
C  -3.944370   0.255865  -0.037632
C  -2.721949  -0.606737   0.119336
H  -4.900297  -0.397155  -0.092629
H  -3.850865   0.822787  -0.958390
H  -4.133105   0.995234   0.865408
C  -1.403148   0.215160   0.059505
H  -2.660068  -1.297960  -0.735535
H  -2.786484  -1.218989   0.948291
C  -0.144043  -0.706690  -0.025216
H  -1.265702   0.867375   0.923402
H  -1.400778   0.774347  -0.796340
H  -0.033895  -1.362998   0.884107
H   0.699283  -0.182712  -0.094848
H  -0.113166  -1.369067  -0.874197
