14
butane_opt
C  -3.928441   0.258331   0.008537
C  -2.707757  -0.598789   0.075079
H  -4.838567  -0.354385   0.049646
H  -3.855744   0.909692  -0.933630
H  -3.912064   0.835057   0.878619
C  -1.402034   0.183314  -0.020488
H  -2.751443  -1.198299  -0.692059
H  -2.685063  -1.253660   0.958938
C  -0.179889  -0.696397   0.017707
H  -1.456418   0.940654   0.872226
H  -1.386163   0.749337  -0.879780
H  -0.192266  -1.137303   0.813487
H   0.684620  -0.166516   0.326205
H  -0.022333  -1.559032  -0.951197
