14
butane_opt
C  -3.945803   0.247681   0.046477
C  -2.715239  -0.597368   0.032148
H  -4.823698  -0.370038  -0.203974
H  -3.793403   0.668150  -0.718755
H  -4.136455   1.164884   1.054014
C  -1.391148   0.206061  -0.045712
H  -2.739353  -1.251523  -0.816576
H  -2.716079  -1.290799   0.951336
C  -0.153279  -0.706995   0.054584
H  -1.380350   0.874737   0.829075
H  -1.373347   0.815932  -0.925166
H  -0.138024  -1.399196   1.032394
H   0.669426  -0.198068  -0.028385
H  -0.108799  -1.291339  -0.747833
