14
butane_opt
C  -3.964242   0.246940  -0.012247
C  -2.701787  -0.604660   0.073231
H  -4.930100  -0.371938   0.095892
H  -4.004264   1.053570  -1.054763
H  -3.955261   0.718134   0.742878
C  -1.414951   0.213918   0.050035
H  -2.726127  -1.192134  -0.732005
H  -2.705453  -1.311422   0.995901
C  -0.137277  -0.718459  -0.012054
H  -1.360362   1.041597   0.983644
H  -1.341950   0.762711  -0.776867
H  -0.098588  -1.255898   0.819849
H   0.774935  -0.092794   0.107689
H  -0.045500  -1.490518  -0.970362
