14
butane_opt
C  -3.980458   0.273977  -0.019105
C  -2.689906  -0.622869   0.095622
H  -4.877708  -0.274121   0.083728
H  -3.951137   0.965861  -0.998069
H  -4.006283   0.852821   0.774201
C  -1.394356   0.165962   0.043396
H  -2.672836  -1.270995  -0.746185
H  -2.802329  -1.301223   1.033084
C  -0.150310  -0.672389  -0.003856
H  -1.293245   0.805335   0.873567
H  -1.426769   0.824165  -0.925427
H  -0.166212  -1.103133   0.767240
H   0.769690  -0.051074   0.229728
H  -0.038506  -1.650239  -1.063844
