14
butane_opt
C  -3.952181   0.275076  -0.004070
C  -2.704777  -0.639868   0.064485
H  -4.879893  -0.307818   0.146631
H  -3.968943   1.062744  -1.035569
H  -3.926573   0.831278   0.793100
C  -1.393339   0.193568   0.021159
H  -2.777684  -1.298576  -0.783981
H  -2.755482  -1.280747   0.957232
C  -0.156332  -0.688630   0.011008
H  -1.312811   0.915542   0.980205
H  -1.433963   0.740539  -0.811438
H  -0.098390  -1.207565   0.840342
H   0.729199  -0.142084   0.124432
H  -0.129300  -1.456825  -0.901443
