14
butane_opt
C  -3.953763   0.281491   0.073824
C  -2.675564  -0.626598  -0.035305
H  -4.863486  -0.326203   0.239332
H  -4.089508   0.942414  -0.853252
H  -3.846458   0.908808   0.967019
C  -1.412884   0.151053  -0.024622
H  -2.621495  -1.390857  -0.951476
H  -2.668219  -1.184986   0.744380
C  -0.170867  -0.675863   0.089909
H  -1.399770   0.780204   0.780980
H  -1.273665   0.901796  -1.020903
H  -0.311443  -1.339439   1.030946
H   0.773570  -0.040393   0.021569
H  -0.163756  -1.278409  -0.758994
