butane_opt
 OpenBabel08242015413D

 14 13  0  0  0  0  0  0  0  0999 V2000
   -3.9449    0.2667    0.0421 C   0  0  0  0  0  0  0  0  0  0  0  0
   -2.6726   -0.6231    0.0004 C   0  0  0  0  0  0  0  0  0  0  0  0
   -4.7870   -0.2428   -0.0027 H   0  0  0  0  0  0  0  0  0  0  0  0
   -3.9854    0.8018   -0.7773 H   0  0  0  0  0  0  0  0  0  0  0  0
   -3.9577    1.0209    0.9286 H   0  0  0  0  0  0  0  0  0  0  0  0
   -1.4113    0.1618   -0.0011 C   0  0  0  0  0  0  0  0  0  0  0  0
   -2.8083   -1.3798   -0.9382 H   0  0  0  0  0  0  0  0  0  0  0  0
   -2.6738   -1.1873    0.8880 H   0  0  0  0  0  0  0  0  0  0  0  0
   -0.1727   -0.6778    0.0736 C   0  0  0  0  0  0  0  0  0  0  0  0
   -1.4488    0.8557    0.8269 H   0  0  0  0  0  0  0  0  0  0  0  0
   -1.3733    0.8341   -0.9323 H   0  0  0  0  0  0  0  0  0  0  0  0
   -0.1045   -1.4591    1.0341 H   0  0  0  0  0  0  0  0  0  0  0  0
    0.7769   -0.0546   -0.2399 H   0  0  0  0  0  0  0  0  0  0  0  0
   -0.2568   -1.1806   -0.7120 H   0  0  0  0  0  0  0  0  0  0  0  0
  1  5  1  0  0  0  0
  2  1  1  0  0  0  0
  2  8  1  0  0  0  0
  3  1  1  0  0  0  0
  4  1  1  0  0  0  0
  6  2  1  0  0  0  0
  6  9  1  0  0  0  0
  6 10  1  0  0  0  0
  7  2  1  0  0  0  0
  9 12  1  0  0  0  0
 11  6  1  0  0  0  0
 13  9  1  0  0  0  0
 14  9  1  0  0  0  0
M  END
$$$$
