14
butane_opt
C  -3.933129   0.246004   0.053550
C  -2.685388  -0.592225   0.012179
H  -4.912279  -0.416228   0.092170
H  -3.960342   0.798812  -0.794383
H  -3.874180   0.995329   0.983328
C  -1.426839   0.199929  -0.059327
H  -2.776625  -1.236946  -0.843749
H  -2.622539  -1.196169   0.880664
C  -0.173031  -0.713039   0.080264
H  -1.464816   0.770621   0.738860
H  -1.351756   0.889223  -1.001191
H  -0.176219  -1.183694   0.898997
H   0.803707  -0.118756   0.274948
H  -0.059272  -1.470609  -0.833227
