14
butane_opt
C  -3.968581   0.280178   0.061592
C  -2.703776  -0.647413   0.000747
H  -4.851133  -0.256981  -0.162769
H  -3.967505   0.698353  -0.721277
H  -4.084958   1.191359   1.099288
C  -1.391143   0.168185  -0.031792
H  -2.758891  -1.315972  -0.844354
H  -2.590207  -1.224714   0.818886
C  -0.150469  -0.686963   0.077868
H  -1.438723   0.746174   0.705366
H  -1.322495   0.906270  -1.017311
H  -0.073083  -1.409187   1.031758
H   0.836807   0.014616  -0.027116
H  -0.215779  -1.181637  -0.705239
