14
butane_opt
C  -3.948422   0.253466   0.069308
C  -2.716254  -0.585000  -0.011988
H  -4.897396  -0.401267   0.116491
H  -4.022951   0.741412  -0.728181
H  -3.936526   0.948581   0.948178
C  -1.392784   0.205596  -0.052066
H  -2.857486  -1.323510  -0.885193
H  -2.697674  -1.150441   0.792721
C  -0.137592  -0.715609   0.092369
H  -1.428469   0.754113   0.711461
H  -1.369108   0.956502  -1.020970
H  -0.196658  -1.345203   0.970905
H   0.723190  -0.148251   0.155675
H   0.009470  -1.418493  -0.785739
