butane_opt
 OpenBabel08242015413D

 14 13  0  0  0  0  0  0  0  0999 V2000
   -3.9674    0.2413    0.0567 C   0  0  0  0  0  0  0  0  0  0  0  0
   -2.7148   -0.5971   -0.0077 C   0  0  0  0  0  0  0  0  0  0  0  0
   -4.8432   -0.3812    0.0816 H   0  0  0  0  0  0  0  0  0  0  0  0
   -3.9985    0.8896   -0.8340 H   0  0  0  0  0  0  0  0  0  0  0  0
   -3.8244    0.8896    0.9254 H   0  0  0  0  0  0  0  0  0  0  0  0
   -1.4024    0.2247   -0.0244 C   0  0  0  0  0  0  0  0  0  0  0  0
   -2.7094   -1.2972   -0.8642 H   0  0  0  0  0  0  0  0  0  0  0  0
   -2.7447   -1.1393    0.8816 H   0  0  0  0  0  0  0  0  0  0  0  0
   -0.1384   -0.7292    0.0590 C   0  0  0  0  0  0  0  0  0  0  0  0
   -1.3821    0.8839    0.8182 H   0  0  0  0  0  0  0  0  0  0  0  0
   -1.3521    0.8293   -0.8977 H   0  0  0  0  0  0  0  0  0  0  0  0
   -0.1580   -1.3731    0.9707 H   0  0  0  0  0  0  0  0  0  0  0  0
    0.7368   -0.1844    0.0545 H   0  0  0  0  0  0  0  0  0  0  0  0
   -0.0545   -1.2691   -0.6959 H   0  0  0  0  0  0  0  0  0  0  0  0
  1  3  1  0  0  0  0
  1  5  1  0  0  0  0
  2  1  1  0  0  0  0
  2  8  1  0  0  0  0
  4  1  1  0  0  0  0
  6  2  1  0  0  0  0
  6  9  1  0  0  0  0
  6 10  1  0  0  0  0
  7  2  1  0  0  0  0
  9 12  1  0  0  0  0
 11  6  1  0  0  0  0
 13  9  1  0  0  0  0
 14  9  1  0  0  0  0
M  END
$$$$
