butane_opt
 OpenBabel08242015413D

 14 13  0  0  0  0  0  0  0  0999 V2000
   -3.9524    0.2541   -0.0527 C   0  0  0  0  0  0  0  0  0  0  0  0
   -2.7149   -0.5958    0.1186 C   0  0  0  0  0  0  0  0  0  0  0  0
   -4.9097   -0.3784   -0.0321 H   0  0  0  0  0  0  0  0  0  0  0  0
   -3.8479    0.8153   -0.9243 H   0  0  0  0  0  0  0  0  0  0  0  0
   -4.0036    0.9373    0.8375 H   0  0  0  0  0  0  0  0  0  0  0  0
   -1.4000    0.2082    0.0688 C   0  0  0  0  0  0  0  0  0  0  0  0
   -2.7233   -1.2269   -0.7212 H   0  0  0  0  0  0  0  0  0  0  0  0
   -2.8151   -1.2727    1.0236 H   0  0  0  0  0  0  0  0  0  0  0  0
   -0.1326   -0.7180   -0.0198 C   0  0  0  0  0  0  0  0  0  0  0  0
   -1.3437    0.8818    0.8803 H   0  0  0  0  0  0  0  0  0  0  0  0
   -1.4470    0.8687   -0.8152 H   0  0  0  0  0  0  0  0  0  0  0  0
   -0.0848   -1.2816    0.8148 H   0  0  0  0  0  0  0  0  0  0  0  0
    0.7468   -0.0878   -0.0125 H   0  0  0  0  0  0  0  0  0  0  0  0
   -0.1871   -1.5259   -0.9863 H   0  0  0  0  0  0  0  0  0  0  0  0
  1  3  1  0  0  0  0
  1  2  1  0  0  0  0
  1  5  1  0  0  0  0
  2  8  1  0  0  0  0
  4  1  1  0  0  0  0
  6  2  1  0  0  0  0
  6 10  1  0  0  0  0
  7  2  1  0  0  0  0
  9 13  1  0  0  0  0
  9  6  1  0  0  0  0
  9 12  1  0  0  0  0
 11  6  1  0  0  0  0
 14  9  1  0  0  0  0
M  END
$$$$
