butane_opt
 OpenBabel08242015413D

 14 13  0  0  0  0  0  0  0  0999 V2000
   -3.9328    0.2513   -0.0376 C   0  0  0  0  0  0  0  0  0  0  0  0
   -2.6738   -0.6137    0.1152 C   0  0  0  0  0  0  0  0  0  0  0  0
   -4.9029   -0.3673   -0.1360 H   0  0  0  0  0  0  0  0  0  0  0  0
   -3.7424    0.8152   -0.8982 H   0  0  0  0  0  0  0  0  0  0  0  0
   -4.0641    0.9797    0.8338 H   0  0  0  0  0  0  0  0  0  0  0  0
   -1.4170    0.2063    0.0690 C   0  0  0  0  0  0  0  0  0  0  0  0
   -2.7017   -1.2237   -0.7001 H   0  0  0  0  0  0  0  0  0  0  0  0
   -2.7293   -1.2258    0.9403 H   0  0  0  0  0  0  0  0  0  0  0  0
   -0.1893   -0.7060   -0.0257 C   0  0  0  0  0  0  0  0  0  0  0  0
   -1.3040    0.8772    0.9203 H   0  0  0  0  0  0  0  0  0  0  0  0
   -1.5083    0.8528   -0.8390 H   0  0  0  0  0  0  0  0  0  0  0  0
   -0.0904   -1.3608    0.8441 H   0  0  0  0  0  0  0  0  0  0  0  0
    0.7186   -0.0960   -0.0576 H   0  0  0  0  0  0  0  0  0  0  0  0
   -0.1463   -1.3901   -0.8998 H   0  0  0  0  0  0  0  0  0  0  0  0
  1  2  1  0  0  0  0
  1  5  1  0  0  0  0
  2  8  1  0  0  0  0
  3  1  1  0  0  0  0
  4  1  1  0  0  0  0
  6  2  1  0  0  0  0
  6 10  1  0  0  0  0
  7  2  1  0  0  0  0
  9  6  1  0  0  0  0
  9 12  1  0  0  0  0
 11  6  1  0  0  0  0
 13  9  1  0  0  0  0
 14  9  1  0  0  0  0
M  END
$$$$
