14
butane_opt
C  -3.935868   0.272173   0.037219
C  -2.680380  -0.619945   0.025626
H  -4.862225  -0.276879  -0.063736
H  -3.832340   0.752429  -0.818236
H  -3.999375   1.084725   0.967948
C  -1.422360   0.157728  -0.010399
H  -2.722082  -1.284994  -0.811122
H  -2.756099  -1.272733   0.969485
C  -0.168466  -0.677875   0.052446
H  -1.465991   0.782018   0.818097
H  -1.377040   0.866815  -0.977584
H  -0.146756  -1.311228   0.951303
H   0.813799  -0.013548   0.005414
H  -0.213421  -1.374332  -0.841497
