butane_opt
 OpenBabel08242015413D

 14 13  0  0  0  0  0  0  0  0999 V2000
   -3.9347    0.2776   -0.0393 C   0  0  0  0  0  0  0  0  0  0  0  0
   -2.6839   -0.6408    0.1191 C   0  0  0  0  0  0  0  0  0  0  0  0
   -4.8247   -0.3224   -0.2400 H   0  0  0  0  0  0  0  0  0  0  0  0
   -3.8254    0.8337   -0.9198 H   0  0  0  0  0  0  0  0  0  0  0  0
   -4.1420    1.1390    0.8795 H   0  0  0  0  0  0  0  0  0  0  0  0
   -1.4141    0.1632    0.0614 C   0  0  0  0  0  0  0  0  0  0  0  0
   -2.5850   -1.2501   -0.6502 H   0  0  0  0  0  0  0  0  0  0  0  0
   -2.6943   -1.4190    1.0808 H   0  0  0  0  0  0  0  0  0  0  0  0
   -0.1790   -0.6653   -0.0371 C   0  0  0  0  0  0  0  0  0  0  0  0
   -1.2210    0.8962    0.9272 H   0  0  0  0  0  0  0  0  0  0  0  0
   -1.4891    0.7413   -0.8034 H   0  0  0  0  0  0  0  0  0  0  0  0
   -0.1804   -1.2717    0.8834 H   0  0  0  0  0  0  0  0  0  0  0  0
    0.6888   -0.0822   -0.0235 H   0  0  0  0  0  0  0  0  0  0  0  0
   -0.2068   -1.3575   -0.9227 H   0  0  0  0  0  0  0  0  0  0  0  0
  1  2  1  0  0  0  0
  1  5  1  0  0  0  0
  2  8  1  0  0  0  0
  3  1  1  0  0  0  0
  4  1  1  0  0  0  0
  6  2  1  0  0  0  0
  6 10  1  0  0  0  0
  7  2  1  0  0  0  0
  9 13  1  0  0  0  0
  9  6  1  0  0  0  0
  9 12  1  0  0  0  0
 11  6  1  0  0  0  0
 14  9  1  0  0  0  0
M  END
$$$$
