butane_opt
 OpenBabel08242015413D

 14 13  0  0  0  0  0  0  0  0999 V2000
   -3.9359    0.2722    0.0372 C   0  0  0  0  0  0  0  0  0  0  0  0
   -2.6804   -0.6199    0.0256 C   0  0  0  0  0  0  0  0  0  0  0  0
   -4.8622   -0.2769   -0.0637 H   0  0  0  0  0  0  0  0  0  0  0  0
   -3.8323    0.7524   -0.8182 H   0  0  0  0  0  0  0  0  0  0  0  0
   -3.9994    1.0847    0.9679 H   0  0  0  0  0  0  0  0  0  0  0  0
   -1.4224    0.1577   -0.0104 C   0  0  0  0  0  0  0  0  0  0  0  0
   -2.7221   -1.2850   -0.8111 H   0  0  0  0  0  0  0  0  0  0  0  0
   -2.7561   -1.2727    0.9695 H   0  0  0  0  0  0  0  0  0  0  0  0
   -0.1685   -0.6779    0.0524 C   0  0  0  0  0  0  0  0  0  0  0  0
   -1.4660    0.7820    0.8181 H   0  0  0  0  0  0  0  0  0  0  0  0
   -1.3770    0.8668   -0.9776 H   0  0  0  0  0  0  0  0  0  0  0  0
   -0.1468   -1.3112    0.9513 H   0  0  0  0  0  0  0  0  0  0  0  0
    0.8138   -0.0135    0.0054 H   0  0  0  0  0  0  0  0  0  0  0  0
   -0.2134   -1.3743   -0.8415 H   0  0  0  0  0  0  0  0  0  0  0  0
  1  5  1  0  0  0  0
  2  1  1  0  0  0  0
  2  8  1  0  0  0  0
  3  1  1  0  0  0  0
  4  1  1  0  0  0  0
  6  2  1  0  0  0  0
  6  9  1  0  0  0  0
  6 10  1  0  0  0  0
  7  2  1  0  0  0  0
  9 12  1  0  0  0  0
 11  6  1  0  0  0  0
 13  9  1  0  0  0  0
 14  9  1  0  0  0  0
M  END
$$$$
