14
butane_opt
C  -3.955602   0.279578   0.075286
C  -2.680781  -0.647208  -0.032734
H  -4.793598  -0.306338   0.263653
H  -4.142040   1.076024  -0.892962
H  -3.945633   0.805038   0.852577
C  -1.399952   0.181261  -0.029875
H  -2.808870  -1.462677  -0.960709
H  -2.659272  -1.172291   0.810803
C  -0.158653  -0.684748   0.077829
H  -1.459470   0.860030   0.850342
H  -1.319861   0.825128  -0.959930
H  -0.181661  -1.296581   0.981385
H   0.751814  -0.084204   0.107463
H  -0.126445  -1.244614  -0.714526
