14
butane_opt
C  -3.932848   0.251335  -0.037626
C  -2.673833  -0.613699   0.115208
H  -4.902916  -0.367262  -0.135965
H  -3.742408   0.815218  -0.898155
H  -4.064090   0.979729   0.833783
C  -1.416952   0.206265   0.068983
H  -2.701663  -1.223693  -0.700114
H  -2.729347  -1.225756   0.940312
C  -0.189341  -0.705995  -0.025667
H  -1.304044   0.877232   0.920308
H  -1.508256   0.852822  -0.839004
H  -0.090413  -1.360804   0.844092
H   0.718637  -0.096042  -0.057648
H  -0.146309  -1.390059  -0.899803
