14
butane_opt
C  -3.935740   0.250254   0.051924
C  -2.701716  -0.573572  -0.005953
H  -4.828057  -0.329638   0.139628
H  -4.010427   0.887398  -0.898760
H  -3.809282   0.836109   0.898293
C  -1.397172   0.180542  -0.014276
H  -2.808657  -1.358694  -0.895967
H  -2.686982  -1.177678   0.875182
C  -0.169768  -0.709245   0.052761
H  -1.437738   0.868934   0.823720
H  -1.432395   0.812753  -0.881815
H  -0.214690  -1.372917   1.017853
H   0.752498  -0.101808   0.060951
H  -0.095409  -1.299399  -0.720302
