butane_opt
 OpenBabel08242015413D

 14 13  0  0  0  0  0  0  0  0999 V2000
   -3.9543    0.2730    0.0570 C   0  0  0  0  0  0  0  0  0  0  0  0
   -2.6931   -0.6148    0.0141 C   0  0  0  0  0  0  0  0  0  0  0  0
   -4.7892   -0.2839   -0.1709 H   0  0  0  0  0  0  0  0  0  0  0  0
   -3.9539    0.6717   -0.7002 H   0  0  0  0  0  0  0  0  0  0  0  0
   -3.9727    1.1598    1.0190 H   0  0  0  0  0  0  0  0  0  0  0  0
   -1.3832    0.1522   -0.0494 C   0  0  0  0  0  0  0  0  0  0  0  0
   -2.7421   -1.2603   -0.8534 H   0  0  0  0  0  0  0  0  0  0  0  0
   -2.6849   -1.3076    0.9828 H   0  0  0  0  0  0  0  0  0  0  0  0
   -0.1742   -0.6747    0.0678 C   0  0  0  0  0  0  0  0  0  0  0  0
   -1.5178    0.8348    0.7991 H   0  0  0  0  0  0  0  0  0  0  0  0
   -1.3238    0.8418   -0.9684 H   0  0  0  0  0  0  0  0  0  0  0  0
   -0.2275   -1.3686    1.0071 H   0  0  0  0  0  0  0  0  0  0  0  0
    0.7838   -0.0684    0.0148 H   0  0  0  0  0  0  0  0  0  0  0  0
   -0.1485   -1.3137   -0.7524 H   0  0  0  0  0  0  0  0  0  0  0  0
  1  5  1  0  0  0  0
  2  1  1  0  0  0  0
  2  8  1  0  0  0  0
  3  1  1  0  0  0  0
  4  1  1  0  0  0  0
  6  2  1  0  0  0  0
  6  9  1  0  0  0  0
  6 10  1  0  0  0  0
  7  2  1  0  0  0  0
  9 12  1  0  0  0  0
 11  6  1  0  0  0  0
 13  9  1  0  0  0  0
 14  9  1  0  0  0  0
M  END
$$$$
