14
butane_opt
C  -3.944701   0.288203  -0.016639
C  -2.704312  -0.650880   0.096402
H  -4.829727  -0.282801  -0.268473
H  -3.951738   0.792466  -0.835136
H  -4.121785   1.086705   0.926334
C  -1.409334   0.173948   0.052216
H  -2.601998  -1.312837  -0.750979
H  -2.818622  -1.326777   1.051953
C  -0.154211  -0.674757  -0.005625
H  -1.286971   0.796187   0.836717
H  -1.383346   0.876506  -0.932869
H  -0.087413  -1.308579   0.841514
H   0.818012  -0.031799  -0.045033
H  -0.216287  -1.391177  -0.880476
