butane_opt
 OpenBabel08242015413D

 14 13  0  0  0  0  0  0  0  0999 V2000
   -3.9528    0.2387    0.0618 C   0  0  0  0  0  0  0  0  0  0  0  0
   -2.7143   -0.6033   -0.0003 C   0  0  0  0  0  0  0  0  0  0  0  0
   -4.8138   -0.2722    0.1306 H   0  0  0  0  0  0  0  0  0  0  0  0
   -3.9638    0.8509   -0.8282 H   0  0  0  0  0  0  0  0  0  0  0  0
   -3.9834    0.9286    0.9440 H   0  0  0  0  0  0  0  0  0  0  0  0
   -1.4077    0.2113   -0.0585 C   0  0  0  0  0  0  0  0  0  0  0  0
   -2.8393   -1.2482   -0.8301 H   0  0  0  0  0  0  0  0  0  0  0  0
   -2.6796   -1.1944    0.8638 H   0  0  0  0  0  0  0  0  0  0  0  0
   -0.1374   -0.7139    0.0818 C   0  0  0  0  0  0  0  0  0  0  0  0
   -1.3364    0.9103    0.7678 H   0  0  0  0  0  0  0  0  0  0  0  0
   -1.3767    0.8303   -0.9440 H   0  0  0  0  0  0  0  0  0  0  0  0
   -0.2093   -1.2885    0.9140 H   0  0  0  0  0  0  0  0  0  0  0  0
    0.7482   -0.1423    0.2059 H   0  0  0  0  0  0  0  0  0  0  0  0
   -0.0129   -1.4490   -0.7967 H   0  0  0  0  0  0  0  0  0  0  0  0
  1  3  1  0  0  0  0
  1  5  1  0  0  0  0
  2  1  1  0  0  0  0
  2  8  1  0  0  0  0
  4  1  1  0  0  0  0
  6  2  1  0  0  0  0
  6  9  1  0  0  0  0
  6 10  1  0  0  0  0
  7  2  1  0  0  0  0
  9 13  1  0  0  0  0
  9 12  1  0  0  0  0
 11  6  1  0  0  0  0
 14  9  1  0  0  0  0
M  END
$$$$
