14
butane_opt
C  -3.934665   0.277574  -0.039264
C  -2.683944  -0.640758   0.119148
H  -4.824737  -0.322359  -0.240018
H  -3.825365   0.833719  -0.919822
H  -4.142039   1.138972   0.879461
C  -1.414092   0.163171   0.061431
H  -2.585031  -1.250124  -0.650243
H  -2.694259  -1.418958   1.080764
C  -0.178999  -0.665278  -0.037067
H  -1.221028   0.896178   0.927223
H  -1.489125   0.741261  -0.803353
H  -0.180362  -1.271693   0.883378
H   0.688794  -0.082163  -0.023503
H  -0.206795  -1.357502  -0.922687
