14
butane_opt
C  -3.943533   0.273244   0.006567
C  -2.706889  -0.624057   0.061056
H  -4.866647  -0.323400   0.034385
H  -4.028237   0.921666  -0.921069
H  -3.965687   0.899071   0.832894
C  -1.394630   0.180798   0.014479
H  -2.692564  -1.281099  -0.774922
H  -2.723008  -1.297319   0.976823
C  -0.164100  -0.681660   0.021655
H  -1.334493   0.824217   0.882793
H  -1.408682   0.849694  -0.906406
H  -0.170095  -1.203325   0.845437
H   0.744032  -0.120007   0.156049
H  -0.072281  -1.522355  -0.948853
