14
butane_opt
C  -3.959273   0.280770   0.001538
C  -2.678455  -0.632922   0.051586
H  -4.894680  -0.309430   0.102740
H  -3.950763   0.916659  -0.903555
H  -3.835208   0.898535   0.841608
C  -1.409468   0.158477   0.012491
H  -2.619340  -1.231849  -0.743732
H  -2.754787  -1.328509   1.059863
C  -0.172428  -0.675469   0.023744
H  -1.374170   0.872458   0.883379
H  -1.420204   0.837210  -0.908415
H  -0.259995  -1.113673   0.801786
H   0.754329  -0.084398   0.188145
H  -0.050101  -1.506006  -0.976019
