butane_opt
 OpenBabel08242015413D

 14 13  0  0  0  0  0  0  0  0999 V2000
   -3.9381    0.2535    0.0388 C   0  0  0  0  0  0  0  0  0  0  0  0
   -2.7124   -0.5920   -0.0063 C   0  0  0  0  0  0  0  0  0  0  0  0
   -4.9217   -0.3820    0.1330 H   0  0  0  0  0  0  0  0  0  0  0  0
   -4.0075    0.8850   -0.8447 H   0  0  0  0  0  0  0  0  0  0  0  0
   -3.8526    0.8599    0.8741 H   0  0  0  0  0  0  0  0  0  0  0  0
   -1.3927    0.1915    0.0021 C   0  0  0  0  0  0  0  0  0  0  0  0
   -2.7430   -1.3269   -0.8811 H   0  0  0  0  0  0  0  0  0  0  0  0
   -2.7001   -1.1384    0.8450 H   0  0  0  0  0  0  0  0  0  0  0  0
   -0.1510   -0.7143    0.0568 C   0  0  0  0  0  0  0  0  0  0  0  0
   -1.3453    0.9708    0.8968 H   0  0  0  0  0  0  0  0  0  0  0  0
   -1.4803    0.8481   -0.8836 H   0  0  0  0  0  0  0  0  0  0  0  0
   -0.1928   -1.4779    1.0301 H   0  0  0  0  0  0  0  0  0  0  0  0
    0.7345   -0.1346   -0.1367 H   0  0  0  0  0  0  0  0  0  0  0  0
   -0.1652   -1.2576   -0.6814 H   0  0  0  0  0  0  0  0  0  0  0  0
  1  3  1  0  0  0  0
  1  5  1  0  0  0  0
  2  6  1  0  0  0  0
  2  1  1  0  0  0  0
  2  8  1  0  0  0  0
  4  1  1  0  0  0  0
  6  9  1  0  0  0  0
  6 10  1  0  0  0  0
  7  2  1  0  0  0  0
  9 12  1  0  0  0  0
 11  6  1  0  0  0  0
 13  9  1  0  0  0  0
 14  9  1  0  0  0  0
M  END
$$$$
