butane_opt
 OpenBabel08242015413D

 14 13  0  0  0  0  0  0  0  0999 V2000
   -3.9593    0.2808    0.0015 C   0  0  0  0  0  0  0  0  0  0  0  0
   -2.6785   -0.6329    0.0516 C   0  0  0  0  0  0  0  0  0  0  0  0
   -4.8947   -0.3094    0.1027 H   0  0  0  0  0  0  0  0  0  0  0  0
   -3.9508    0.9167   -0.9036 H   0  0  0  0  0  0  0  0  0  0  0  0
   -3.8352    0.8985    0.8416 H   0  0  0  0  0  0  0  0  0  0  0  0
   -1.4095    0.1585    0.0125 C   0  0  0  0  0  0  0  0  0  0  0  0
   -2.6193   -1.2318   -0.7437 H   0  0  0  0  0  0  0  0  0  0  0  0
   -2.7548   -1.3285    1.0599 H   0  0  0  0  0  0  0  0  0  0  0  0
   -0.1724   -0.6755    0.0237 C   0  0  0  0  0  0  0  0  0  0  0  0
   -1.3742    0.8725    0.8834 H   0  0  0  0  0  0  0  0  0  0  0  0
   -1.4202    0.8372   -0.9084 H   0  0  0  0  0  0  0  0  0  0  0  0
   -0.2600   -1.1137    0.8018 H   0  0  0  0  0  0  0  0  0  0  0  0
    0.7543   -0.0844    0.1881 H   0  0  0  0  0  0  0  0  0  0  0  0
   -0.0501   -1.5060   -0.9760 H   0  0  0  0  0  0  0  0  0  0  0  0
  1  2  1  0  0  0  0
  1  3  1  0  0  0  0
  1  5  1  0  0  0  0
  2  8  1  0  0  0  0
  4  1  1  0  0  0  0
  6  9  1  0  0  0  0
  6  2  1  0  0  0  0
  6 10  1  0  0  0  0
  7  2  1  0  0  0  0
  9 13  1  0  0  0  0
  9 12  1  0  0  0  0
 11  6  1  0  0  0  0
 14  9  1  0  0  0  0
M  END
$$$$
