butane_opt
 OpenBabel08242015413D

 14 13  0  0  0  0  0  0  0  0999 V2000
   -3.9550    0.2490    0.0694 C   0  0  0  0  0  0  0  0  0  0  0  0
   -2.7233   -0.6064    0.0038 C   0  0  0  0  0  0  0  0  0  0  0  0
   -4.8584   -0.3386    0.0010 H   0  0  0  0  0  0  0  0  0  0  0  0
   -3.9568    0.7328   -0.7599 H   0  0  0  0  0  0  0  0  0  0  0  0
   -3.9795    0.9866    0.9624 H   0  0  0  0  0  0  0  0  0  0  0  0
   -1.3948    0.2270   -0.0456 C   0  0  0  0  0  0  0  0  0  0  0  0
   -2.6989   -1.3297   -0.8642 H   0  0  0  0  0  0  0  0  0  0  0  0
   -2.7295   -1.1652    0.8718 H   0  0  0  0  0  0  0  0  0  0  0  0
   -0.1324   -0.7203    0.0782 C   0  0  0  0  0  0  0  0  0  0  0  0
   -1.4178    0.7510    0.7116 H   0  0  0  0  0  0  0  0  0  0  0  0
   -1.3868    0.9480   -1.0258 H   0  0  0  0  0  0  0  0  0  0  0  0
   -0.2417   -1.2697    0.9758 H   0  0  0  0  0  0  0  0  0  0  0  0
    0.7234   -0.1870    0.1262 H   0  0  0  0  0  0  0  0  0  0  0  0
    0.0048   -1.4079   -0.8211 H   0  0  0  0  0  0  0  0  0  0  0  0
  1  5  1  0  0  0  0
  2  1  1  0  0  0  0
  2  8  1  0  0  0  0
  3  1  1  0  0  0  0
  4  1  1  0  0  0  0
  6  2  1  0  0  0  0
  6  9  1  0  0  0  0
  6 10  1  0  0  0  0
  7  2  1  0  0  0  0
  9 13  1  0  0  0  0
  9 12  1  0  0  0  0
 11  6  1  0  0  0  0
 14  9  1  0  0  0  0
M  END
$$$$
