14
butane_opt
C  -3.938108   0.253543   0.038761
C  -2.712370  -0.591983  -0.006326
H  -4.921724  -0.382024   0.132958
H  -4.007486   0.885026  -0.844686
H  -3.852636   0.859941   0.874138
C  -1.392712   0.191524   0.002117
H  -2.742961  -1.326893  -0.881121
H  -2.700055  -1.138435   0.844964
C  -0.150991  -0.714310   0.056846
H  -1.345307   0.970783   0.896813
H  -1.480332   0.848056  -0.883551
H  -0.192794  -1.477938   1.030136
H   0.734474  -0.134555  -0.136681
H  -0.165235  -1.257560  -0.681441
