butane_opt
 OpenBabel08242015413D

 14 13  0  0  0  0  0  0  0  0999 V2000
   -3.9474    0.2624   -0.0124 C   0  0  0  0  0  0  0  0  0  0  0  0
   -2.7061   -0.6120    0.0699 C   0  0  0  0  0  0  0  0  0  0  0  0
   -4.8924   -0.3465   -0.0426 H   0  0  0  0  0  0  0  0  0  0  0  0
   -3.9338    0.8570   -0.8951 H   0  0  0  0  0  0  0  0  0  0  0  0
   -4.0056    0.9518    0.8522 H   0  0  0  0  0  0  0  0  0  0  0  0
   -1.3997    0.1841    0.0464 C   0  0  0  0  0  0  0  0  0  0  0  0
   -2.6595   -1.2837   -0.7818 H   0  0  0  0  0  0  0  0  0  0  0  0
   -2.7619   -1.2286    0.9743 H   0  0  0  0  0  0  0  0  0  0  0  0
   -0.1506   -0.6939    0.0089 C   0  0  0  0  0  0  0  0  0  0  0  0
   -1.3696    0.8715    0.8983 H   0  0  0  0  0  0  0  0  0  0  0  0
   -1.4160    0.7972   -0.8448 H   0  0  0  0  0  0  0  0  0  0  0  0
   -0.0409   -1.3169    0.8904 H   0  0  0  0  0  0  0  0  0  0  0  0
    0.7025   -0.1320   -0.1367 H   0  0  0  0  0  0  0  0  0  0  0  0
   -0.1939   -1.3376   -0.8219 H   0  0  0  0  0  0  0  0  0  0  0  0
  1  2  1  0  0  0  0
  1  5  1  0  0  0  0
  2  8  1  0  0  0  0
  3  1  1  0  0  0  0
  4  1  1  0  0  0  0
  6  2  1  0  0  0  0
  6 10  1  0  0  0  0
  7  2  1  0  0  0  0
  9  6  1  0  0  0  0
  9 12  1  0  0  0  0
 11  6  1  0  0  0  0
 13  9  1  0  0  0  0
 14  9  1  0  0  0  0
M  END
$$$$
