14
butane_opt
C  -3.943825   0.244781   0.047893
C  -2.709012  -0.598255   0.003620
H  -4.888196  -0.377597   0.198457
H  -3.989655   0.955722  -0.864798
H  -3.883074   0.865772   0.849824
C  -1.404235   0.209149  -0.028469
H  -2.874405  -1.278762  -0.845390
H  -2.665824  -1.153866   0.823557
C  -0.135437  -0.716202   0.069145
H  -1.444307   0.935538   0.815154
H  -1.382714   0.788278  -0.889773
H  -0.242242  -1.341151   0.978932
H   0.755312  -0.135235   0.076908
H  -0.084869  -1.419540  -0.827571
