14
butane_opt
C  -3.929079   0.244174   0.030211
C  -2.704431  -0.597013   0.014867
H  -4.831908  -0.335574  -0.031060
H  -3.989159   0.792073  -0.780006
H  -3.900951   0.990585   0.910169
C  -1.407130   0.194926   0.018014
H  -2.786971  -1.261767  -0.819945
H  -2.736690  -1.166363   0.851289
C  -0.152019  -0.711223   0.036677
H  -1.421831   0.842338   0.811134
H  -1.421232   0.909945  -0.931663
H  -0.125295  -1.411550   1.034558
H   0.710689  -0.165316  -0.071229
H  -0.196135  -1.252491  -0.716089
