butane_opt
 OpenBabel08242015413D

 14 13  0  0  0  0  0  0  0  0999 V2000
   -3.9271    0.2688   -0.0222 C   0  0  0  0  0  0  0  0  0  0  0  0
   -2.6709   -0.6272    0.0545 C   0  0  0  0  0  0  0  0  0  0  0  0
   -4.8221   -0.2752    0.2730 H   0  0  0  0  0  0  0  0  0  0  0  0
   -4.1745    1.1195   -1.0418 H   0  0  0  0  0  0  0  0  0  0  0  0
   -3.9319    0.8020    0.7570 H   0  0  0  0  0  0  0  0  0  0  0  0
   -1.4171    0.1556    0.0633 C   0  0  0  0  0  0  0  0  0  0  0  0
   -2.6258   -1.3035   -0.7844 H   0  0  0  0  0  0  0  0  0  0  0  0
   -2.7392   -1.3142    0.9735 H   0  0  0  0  0  0  0  0  0  0  0  0
   -0.1820   -0.6790   -0.0068 C   0  0  0  0  0  0  0  0  0  0  0  0
   -1.3778    0.9519    0.9693 H   0  0  0  0  0  0  0  0  0  0  0  0
   -1.3410    0.7247   -0.8053 H   0  0  0  0  0  0  0  0  0  0  0  0
   -0.1833   -1.2220    0.8531 H   0  0  0  0  0  0  0  0  0  0  0  0
    0.7796   -0.0277    0.0797 H   0  0  0  0  0  0  0  0  0  0  0  0
   -0.2332   -1.3390   -0.9189 H   0  0  0  0  0  0  0  0  0  0  0  0
  1  2  1  0  0  0  0
  1  3  1  0  0  0  0
  1  5  1  0  0  0  0
  2  6  1  0  0  0  0
  2  8  1  0  0  0  0
  4  1  1  0  0  0  0
  6 10  1  0  0  0  0
  7  2  1  0  0  0  0
  9  6  1  0  0  0  0
  9 13  1  0  0  0  0
  9 12  1  0  0  0  0
 11  6  1  0  0  0  0
 14  9  1  0  0  0  0
M  END
$$$$
