14
butane_opt
C  -3.927085   0.268771  -0.022163
C  -2.670935  -0.627177   0.054512
H  -4.822093  -0.275200   0.273013
H  -4.174457   1.119495  -1.041799
H  -3.931882   0.801978   0.757019
C  -1.417056   0.155638   0.063270
H  -2.625833  -1.303500  -0.784434
H  -2.739231  -1.314175   0.973452
C  -0.181990  -0.678969  -0.006779
H  -1.377805   0.951923   0.969261
H  -1.340966   0.724731  -0.805253
H  -0.183332  -1.222022   0.853063
H   0.779644  -0.027718   0.079663
H  -0.233241  -1.338977  -0.918884
