14
butane_opt
C  -3.968817   0.287782  -0.050100
C  -2.711429  -0.632372   0.100092
H  -4.816601  -0.288777  -0.019359
H  -4.037187   0.934514  -0.996822
H  -4.001979   0.867812   0.722584
C  -1.377686   0.168314   0.108437
H  -2.644408  -1.355223  -0.770789
H  -2.732335  -1.264719   1.009791
C  -0.158076  -0.692988  -0.031258
H  -1.300436   0.910682   0.974332
H  -1.392960   0.821915  -0.783522
H  -0.032863  -1.331597   0.860261
H   0.841690  -0.017101  -0.209067
H  -0.319595  -1.303414  -0.879782
