14
butane_opt
C  -3.948632   0.272714   0.062301
C  -2.669398  -0.630163   0.000758
H  -4.813020  -0.225534   0.165708
H  -4.001950   0.883062  -0.827801
H  -3.959965   0.949322   0.930933
C  -1.407001   0.148137  -0.064750
H  -2.769347  -1.254265  -0.821855
H  -2.659088  -1.219401   0.870958
C  -0.177144  -0.675495   0.075100
H  -1.489787   0.867832   0.826841
H  -1.338244   0.720606  -0.974964
H  -0.322881  -1.150714   0.944731
H   0.799218  -0.029747   0.210910
H  -0.059416  -1.384101  -0.779736
