14
butane_opt
C  -3.942690   0.251109   0.060479
C  -2.696780  -0.590393   0.028158
H  -4.912529  -0.439794   0.029992
H  -3.961833   0.884130  -0.865613
H  -3.949101   0.834647   0.854739
C  -1.412645   0.217837  -0.033318
H  -2.800270  -1.321070  -0.847775
H  -2.690643  -1.154867   0.852522
C  -0.147718  -0.719443   0.059564
H  -1.480576   0.831413   0.739606
H  -1.352469   0.852799  -0.968110
H  -0.218210  -1.257851   0.922322
H   0.783620  -0.127806   0.218038
H  -0.031327  -1.493432  -0.895109
