butane_opt
 OpenBabel08242015413D

 14 13  0  0  0  0  0  0  0  0999 V2000
   -3.9486    0.2727    0.0623 C   0  0  0  0  0  0  0  0  0  0  0  0
   -2.6694   -0.6302    0.0008 C   0  0  0  0  0  0  0  0  0  0  0  0
   -4.8130   -0.2255    0.1657 H   0  0  0  0  0  0  0  0  0  0  0  0
   -4.0019    0.8831   -0.8278 H   0  0  0  0  0  0  0  0  0  0  0  0
   -3.9600    0.9493    0.9309 H   0  0  0  0  0  0  0  0  0  0  0  0
   -1.4070    0.1481   -0.0648 C   0  0  0  0  0  0  0  0  0  0  0  0
   -2.7693   -1.2543   -0.8219 H   0  0  0  0  0  0  0  0  0  0  0  0
   -2.6591   -1.2194    0.8710 H   0  0  0  0  0  0  0  0  0  0  0  0
   -0.1771   -0.6755    0.0751 C   0  0  0  0  0  0  0  0  0  0  0  0
   -1.4898    0.8678    0.8268 H   0  0  0  0  0  0  0  0  0  0  0  0
   -1.3382    0.7206   -0.9750 H   0  0  0  0  0  0  0  0  0  0  0  0
   -0.3229   -1.1507    0.9447 H   0  0  0  0  0  0  0  0  0  0  0  0
    0.7992   -0.0297    0.2109 H   0  0  0  0  0  0  0  0  0  0  0  0
   -0.0594   -1.3841   -0.7797 H   0  0  0  0  0  0  0  0  0  0  0  0
  1  3  1  0  0  0  0
  1  5  1  0  0  0  0
  2  1  1  0  0  0  0
  2  8  1  0  0  0  0
  4  1  1  0  0  0  0
  6  2  1  0  0  0  0
  6  9  1  0  0  0  0
  6 10  1  0  0  0  0
  7  2  1  0  0  0  0
  9 13  1  0  0  0  0
  9 12  1  0  0  0  0
 11  6  1  0  0  0  0
 14  9  1  0  0  0  0
M  END
$$$$
