14
butane_opt
C  -3.951086   0.254939   0.064378
C  -2.712227  -0.606093   0.013132
H  -4.897957  -0.370017  -0.002201
H  -3.919952   0.791285  -0.790933
H  -3.971137   0.926832   0.956326
C  -1.419296   0.228197  -0.061069
H  -2.812117  -1.380592  -0.862658
H  -2.623383  -1.209186   0.892882
C  -0.130668  -0.712491   0.086008
H  -1.366852   0.800134   0.737003
H  -1.344596   0.873341  -0.980997
H  -0.198537  -1.225277   0.945617
H   0.681270  -0.197333   0.136969
H   0.003356  -1.468820  -0.836826
