14
butane_opt
C  -3.949104   0.278930   0.008786
C  -2.704679  -0.640988   0.065276
H  -4.823404  -0.309646   0.058167
H  -3.998027   0.937730  -0.914852
H  -4.012248   0.920687   0.848434
C  -1.393632   0.184795   0.005381
H  -2.725798  -1.333497  -0.799961
H  -2.732266  -1.245985   0.940372
C  -0.155751  -0.686214   0.028195
H  -1.398424   0.845771   0.826013
H  -1.397691   0.823181  -0.863956
H  -0.206443  -1.202799   0.849914
H   0.776202  -0.077067   0.112276
H  -0.072799  -1.464593  -0.924691
