14
butane_opt
C  -3.915041   0.258102  -0.018835
C  -2.712957  -0.602785   0.102034
H  -4.840885  -0.351177  -0.138290
H  -3.817503   0.863582  -0.923202
H  -4.059372   0.947738   0.836726
C  -1.415143   0.193222   0.038351
H  -2.648149  -1.324819  -0.737245
H  -2.728921  -1.229081   1.017782
C  -0.173650  -0.688046  -0.004855
H  -1.337799   0.855434   0.864466
H  -1.402243   0.774934  -0.801985
H  -0.026859  -1.324781   0.848669
H   0.704453  -0.159723  -0.013664
H  -0.257083  -1.452612  -0.907449
