14
butane_opt
C  -3.942353   0.293018  -0.039226
C  -2.678580  -0.650133   0.085198
H  -4.842898  -0.315014  -0.024395
H  -3.926156   0.914308  -0.947525
H  -3.972818   0.945858   0.771085
C  -1.401855   0.167214   0.092221
H  -2.611263  -1.349063  -0.762237
H  -2.697237  -1.284552   0.943538
C  -0.197180  -0.667797  -0.006164
H  -1.313608   0.858794   0.933474
H  -1.473701   0.761686  -0.795329
H   0.000141  -1.362164   0.945576
H   0.742659  -0.011409  -0.299874
H  -0.315368  -1.322457  -0.901913
