14
butane_opt
C  -3.934576   0.248002  -0.010737
C  -2.700493  -0.608689   0.095112
H  -4.872949  -0.384331   0.049679
H  -3.824399   0.989869  -1.009227
H  -3.909275   0.824670   0.746525
C  -1.416513   0.210343   0.042082
H  -2.637759  -1.230123  -0.700739
H  -2.777000  -1.300481   0.996978
C  -0.161255  -0.707772  -0.006354
H  -1.454748   0.876810   0.852945
H  -1.458425   0.861972  -0.880969
H  -0.156162  -1.039538   0.712712
H   0.655749  -0.176226   0.217400
H  -0.034936  -1.611262  -1.018692
