14
butane_opt
C  -3.933991   0.273010  -0.022598
C  -2.685709  -0.632302   0.118549
H  -4.834504  -0.273160  -0.257329
H  -3.930111   0.862208  -0.898062
H  -4.168785   1.052681   0.859770
C  -1.390373   0.156634   0.037160
H  -2.744950  -1.330946  -0.730734
H  -2.689697  -1.278699   1.052547
C  -0.177407  -0.678208  -0.010645
H  -1.423310   0.844497   0.922017
H  -1.423575   0.830524  -0.894262
H  -0.114226  -1.160958   0.829077
H   0.766857  -0.066044  -0.014603
H  -0.211535  -1.382695  -0.915160
