butane_opt
 OpenBabel08242015413D

 14 13  0  0  0  0  0  0  0  0999 V2000
   -3.9559    0.2587   -0.0088 C   0  0  0  0  0  0  0  0  0  0  0  0
   -2.7101   -0.6096    0.0950 C   0  0  0  0  0  0  0  0  0  0  0  0
   -4.8842   -0.3081   -0.0179 H   0  0  0  0  0  0  0  0  0  0  0  0
   -3.9942    0.9348   -0.9568 H   0  0  0  0  0  0  0  0  0  0  0  0
   -3.9983    0.8452    0.7704 H   0  0  0  0  0  0  0  0  0  0  0  0
   -1.4136    0.1704    0.0310 C   0  0  0  0  0  0  0  0  0  0  0  0
   -2.7500   -1.2305   -0.7389 H   0  0  0  0  0  0  0  0  0  0  0  0
   -2.7851   -1.2672    1.0128 H   0  0  0  0  0  0  0  0  0  0  0  0
   -0.1141   -0.6903   -0.0152 C   0  0  0  0  0  0  0  0  0  0  0  0
   -1.3609    0.9510    0.9174 H   0  0  0  0  0  0  0  0  0  0  0  0
   -1.4575    0.8310   -0.8862 H   0  0  0  0  0  0  0  0  0  0  0  0
   -0.2198   -1.1683    0.7944 H   0  0  0  0  0  0  0  0  0  0  0  0
    0.7650   -0.1195    0.2262 H   0  0  0  0  0  0  0  0  0  0  0  0
   -0.0116   -1.5076   -0.9279 H   0  0  0  0  0  0  0  0  0  0  0  0
  1  2  1  0  0  0  0
  1  5  1  0  0  0  0
  2  8  1  0  0  0  0
  3  1  1  0  0  0  0
  4  1  1  0  0  0  0
  6  2  1  0  0  0  0
  6 10  1  0  0  0  0
  7  2  1  0  0  0  0
  9  6  1  0  0  0  0
  9 13  1  0  0  0  0
  9 12  1  0  0  0  0
 11  6  1  0  0  0  0
 14  9  1  0  0  0  0
M  END
$$$$
