14
butane_opt
C  -3.941983   0.282112  -0.017070
C  -2.691018  -0.627605   0.064791
H  -4.810107  -0.306366   0.137605
H  -4.057451   1.033940  -0.984299
H  -3.925522   0.863579   0.793495
C  -1.386017   0.154171   0.039029
H  -2.616944  -1.233034  -0.705413
H  -2.702149  -1.415125   1.022600
C  -0.193723  -0.674636  -0.004674
H  -1.270727   0.865480   0.946034
H  -1.386628   0.806299  -0.846214
H  -0.221123  -1.085189   0.780761
H   0.692086  -0.082914   0.233982
H  -0.169619  -1.523078  -0.948097
