14
butane_opt
C  -3.938344   0.292426   0.062144
C  -2.704980  -0.631989   0.008372
H  -4.909895  -0.337719  -0.211091
H  -3.887906   0.644072  -0.706536
H  -4.072860   1.169065   1.068469
C  -1.394459   0.160843  -0.051342
H  -2.732015  -1.301642  -0.827045
H  -2.589179  -1.295339   0.931853
C  -0.178695  -0.679431   0.079619
H  -1.376127   0.840390   0.781397
H  -1.327411   0.840110  -0.969007
H  -0.211794  -1.427434   1.034640
H   0.800818  -0.030242  -0.072494
H  -0.124308  -1.279163  -0.753755
