butane_opt
 OpenBabel08242015413D

 14 13  0  0  0  0  0  0  0  0999 V2000
   -3.9383    0.2924    0.0621 C   0  0  0  0  0  0  0  0  0  0  0  0
   -2.7050   -0.6320    0.0084 C   0  0  0  0  0  0  0  0  0  0  0  0
   -4.9099   -0.3377   -0.2111 H   0  0  0  0  0  0  0  0  0  0  0  0
   -3.8879    0.6441   -0.7065 H   0  0  0  0  0  0  0  0  0  0  0  0
   -4.0729    1.1691    1.0685 H   0  0  0  0  0  0  0  0  0  0  0  0
   -1.3945    0.1608   -0.0513 C   0  0  0  0  0  0  0  0  0  0  0  0
   -2.7320   -1.3016   -0.8270 H   0  0  0  0  0  0  0  0  0  0  0  0
   -2.5892   -1.2953    0.9319 H   0  0  0  0  0  0  0  0  0  0  0  0
   -0.1787   -0.6794    0.0796 C   0  0  0  0  0  0  0  0  0  0  0  0
   -1.3761    0.8404    0.7814 H   0  0  0  0  0  0  0  0  0  0  0  0
   -1.3274    0.8401   -0.9690 H   0  0  0  0  0  0  0  0  0  0  0  0
   -0.2118   -1.4274    1.0346 H   0  0  0  0  0  0  0  0  0  0  0  0
    0.8008   -0.0302   -0.0725 H   0  0  0  0  0  0  0  0  0  0  0  0
   -0.1243   -1.2792   -0.7538 H   0  0  0  0  0  0  0  0  0  0  0  0
  1  5  1  0  0  0  0
  2  1  1  0  0  0  0
  2  8  1  0  0  0  0
  3  1  1  0  0  0  0
  4  1  1  0  0  0  0
  6  2  1  0  0  0  0
  6  9  1  0  0  0  0
  6 10  1  0  0  0  0
  7  2  1  0  0  0  0
  9 12  1  0  0  0  0
 11  6  1  0  0  0  0
 13  9  1  0  0  0  0
 14  9  1  0  0  0  0
M  END
$$$$
