14
butane_opt
C  -3.973196   0.271083  -0.019243
C  -2.683754  -0.635127   0.073702
H  -4.860165  -0.257918  -0.026124
H  -3.862760   0.868711  -0.923315
H  -4.080129   0.977077   0.833719
C  -1.386189   0.179923   0.065924
H  -2.601867  -1.326643  -0.809364
H  -2.750695  -1.308998   0.979996
C  -0.168783  -0.680557  -0.014121
H  -1.342329   0.921548   0.940930
H  -1.455460   0.775217  -0.775042
H  -0.065698  -1.399469   0.972028
H   0.760765  -0.101139  -0.188646
H  -0.228816  -1.236674  -0.811651
