14
butane_opt
C  -3.958169   0.254994   0.000700
C  -2.710383  -0.603690   0.060380
H  -4.876083  -0.369265   0.080614
H  -3.976297   0.947999  -0.947109
H  -3.916925   0.839875   0.799942
C  -1.403119   0.194645   0.015822
H  -2.757241  -1.235252  -0.765015
H  -2.679769  -1.251945   0.986698
C  -0.141844  -0.693261   0.013516
H  -1.398639   0.908175   0.902688
H  -1.427747   0.755432  -0.813179
H  -0.133690  -1.249653   0.879266
H   0.741923  -0.146366   0.112502
H  -0.038999  -1.507167  -0.910737
