14
butane_opt
C  -3.963501   0.255119  -0.017220
C  -2.706812  -0.610806   0.071645
H  -4.864817  -0.323948  -0.125801
H  -3.823550   0.886221  -0.961932
H  -4.048258   0.886212   0.852595
C  -1.390633   0.213044   0.060433
H  -2.790924  -1.275796  -0.745506
H  -2.773680  -1.277308   1.025740
C  -0.148434  -0.708363  -0.013065
H  -1.288637   1.005866   0.984551
H  -1.450361   0.786791  -0.751471
H   0.039149  -1.472177   0.946608
H   0.724542  -0.166352  -0.162330
H  -0.232759  -1.309769  -0.834410
