butane_opt
 OpenBabel08242015413D

 14 13  0  0  0  0  0  0  0  0999 V2000
   -3.9297    0.2636    0.0727 C   0  0  0  0  0  0  0  0  0  0  0  0
   -2.7119   -0.5918    0.0045 C   0  0  0  0  0  0  0  0  0  0  0  0
   -4.8670   -0.3368   -0.0660 H   0  0  0  0  0  0  0  0  0  0  0  0
   -3.8927    0.7425   -0.7899 H   0  0  0  0  0  0  0  0  0  0  0  0
   -3.9793    1.0373    0.9928 H   0  0  0  0  0  0  0  0  0  0  0  0
   -1.4024    0.1734   -0.0485 C   0  0  0  0  0  0  0  0  0  0  0  0
   -2.8142   -1.3438   -0.8639 H   0  0  0  0  0  0  0  0  0  0  0  0
   -2.6931   -1.2117    0.8787 H   0  0  0  0  0  0  0  0  0  0  0  0
   -0.1680   -0.6942    0.0683 C   0  0  0  0  0  0  0  0  0  0  0  0
   -1.5065    0.8059    0.7552 H   0  0  0  0  0  0  0  0  0  0  0  0
   -1.3394    0.8547   -0.9932 H   0  0  0  0  0  0  0  0  0  0  0  0
   -0.1419   -1.4189    1.0086 H   0  0  0  0  0  0  0  0  0  0  0  0
    0.8189   -0.0638    0.1316 H   0  0  0  0  0  0  0  0  0  0  0  0
   -0.0804   -1.3360   -0.7599 H   0  0  0  0  0  0  0  0  0  0  0  0
  1  5  1  0  0  0  0
  2  1  1  0  0  0  0
  2  8  1  0  0  0  0
  3  1  1  0  0  0  0
  4  1  1  0  0  0  0
  6  2  1  0  0  0  0
  6  9  1  0  0  0  0
  6 10  1  0  0  0  0
  7  2  1  0  0  0  0
  9 13  1  0  0  0  0
  9 12  1  0  0  0  0
 11  6  1  0  0  0  0
 14  9  1  0  0  0  0
M  END
$$$$
