butane_opt
 OpenBabel08242015413D

 14 13  0  0  0  0  0  0  0  0999 V2000
   -3.9613    0.2771    0.0110 C   0  0  0  0  0  0  0  0  0  0  0  0
   -2.7001   -0.6324    0.0221 C   0  0  0  0  0  0  0  0  0  0  0  0
   -4.8480   -0.2917    0.2710 H   0  0  0  0  0  0  0  0  0  0  0  0
   -4.1090    1.0496   -1.0161 H   0  0  0  0  0  0  0  0  0  0  0  0
   -3.9084    0.7535    0.7311 H   0  0  0  0  0  0  0  0  0  0  0  0
   -1.3812    0.1858    0.0347 C   0  0  0  0  0  0  0  0  0  0  0  0
   -2.7121   -1.2296   -0.7783 H   0  0  0  0  0  0  0  0  0  0  0  0
   -2.7809   -1.3166    0.9607 H   0  0  0  0  0  0  0  0  0  0  0  0
   -0.1582   -0.6811    0.0183 C   0  0  0  0  0  0  0  0  0  0  0  0
   -1.3840    0.8822    0.8938 H   0  0  0  0  0  0  0  0  0  0  0  0
   -1.3308    0.7379   -0.7556 H   0  0  0  0  0  0  0  0  0  0  0  0
   -0.1020   -1.2327    0.8735 H   0  0  0  0  0  0  0  0  0  0  0  0
    0.7214   -0.1708    0.1322 H   0  0  0  0  0  0  0  0  0  0  0  0
   -0.1594   -1.4433   -0.9272 H   0  0  0  0  0  0  0  0  0  0  0  0
  1  2  1  0  0  0  0
  1  3  1  0  0  0  0
  1  5  1  0  0  0  0
  2  6  1  0  0  0  0
  2  8  1  0  0  0  0
  4  1  1  0  0  0  0
  6 10  1  0  0  0  0
  7  2  1  0  0  0  0
  9  6  1  0  0  0  0
  9 13  1  0  0  0  0
  9 12  1  0  0  0  0
 11  6  1  0  0  0  0
 14  9  1  0  0  0  0
M  END
$$$$
