14
butane_opt
C  -3.929748   0.263627   0.072660
C  -2.711940  -0.591791   0.004533
H  -4.867028  -0.336793  -0.065955
H  -3.892656   0.742461  -0.789931
H  -3.979324   1.037315   0.992803
C  -1.402411   0.173382  -0.048515
H  -2.814194  -1.343812  -0.863893
H  -2.693071  -1.211659   0.878733
C  -0.168044  -0.694186   0.068285
H  -1.506466   0.805919   0.755167
H  -1.339363   0.854662  -0.993220
H  -0.141896  -1.418885   1.008612
H   0.818947  -0.063779   0.131570
H  -0.080416  -1.336000  -0.759889
