butane_opt
 OpenBabel08242015413D

 14 13  0  0  0  0  0  0  0  0999 V2000
   -3.9382    0.2696    0.0355 C   0  0  0  0  0  0  0  0  0  0  0  0
   -2.7078   -0.6271    0.0409 C   0  0  0  0  0  0  0  0  0  0  0  0
   -4.8100   -0.2889   -0.1537 H   0  0  0  0  0  0  0  0  0  0  0  0
   -3.9569    0.7397   -0.7635 H   0  0  0  0  0  0  0  0  0  0  0  0
   -4.1329    1.1511    1.0087 H   0  0  0  0  0  0  0  0  0  0  0  0
   -1.3859    0.1884   -0.0147 C   0  0  0  0  0  0  0  0  0  0  0  0
   -2.8045   -1.4233   -0.8729 H   0  0  0  0  0  0  0  0  0  0  0  0
   -2.6963   -1.2245    0.9091 H   0  0  0  0  0  0  0  0  0  0  0  0
   -0.1585   -0.6836    0.0501 C   0  0  0  0  0  0  0  0  0  0  0  0
   -1.3543    0.7518    0.7729 H   0  0  0  0  0  0  0  0  0  0  0  0
   -1.4413    0.8823   -0.9750 H   0  0  0  0  0  0  0  0  0  0  0  0
   -0.1970   -1.4199    0.9979 H   0  0  0  0  0  0  0  0  0  0  0  0
    0.7571   -0.0914   -0.0448 H   0  0  0  0  0  0  0  0  0  0  0  0
   -0.1024   -1.3054   -0.7550 H   0  0  0  0  0  0  0  0  0  0  0  0
  1  2  1  0  0  0  0
  1  5  1  0  0  0  0
  2  8  1  0  0  0  0
  3  1  1  0  0  0  0
  4  1  1  0  0  0  0
  6  2  1  0  0  0  0
  6  9  1  0  0  0  0
  6 10  1  0  0  0  0
  7  2  1  0  0  0  0
  9 12  1  0  0  0  0
 11  6  1  0  0  0  0
 13  9  1  0  0  0  0
 14  9  1  0  0  0  0
M  END
$$$$
