butane_opt
 OpenBabel08242015413D

 14 13  0  0  0  0  0  0  0  0999 V2000
   -3.9310    0.2382    0.0507 C   0  0  0  0  0  0  0  0  0  0  0  0
   -2.6980   -0.5941    0.0241 C   0  0  0  0  0  0  0  0  0  0  0  0
   -4.8079   -0.3740   -0.1499 H   0  0  0  0  0  0  0  0  0  0  0  0
   -3.8034    0.6604   -0.7252 H   0  0  0  0  0  0  0  0  0  0  0  0
   -4.0447    1.0886    0.9987 H   0  0  0  0  0  0  0  0  0  0  0  0
   -1.4265    0.2315   -0.0361 C   0  0  0  0  0  0  0  0  0  0  0  0
   -2.7586   -1.3447   -0.8846 H   0  0  0  0  0  0  0  0  0  0  0  0
   -2.6537   -1.1939    0.8863 H   0  0  0  0  0  0  0  0  0  0  0  0
   -0.1521   -0.7205    0.0714 C   0  0  0  0  0  0  0  0  0  0  0  0
   -1.4400    0.8248    0.7958 H   0  0  0  0  0  0  0  0  0  0  0  0
   -1.3887    0.8571   -0.9330 H   0  0  0  0  0  0  0  0  0  0  0  0
   -0.1240   -1.4507    1.0065 H   0  0  0  0  0  0  0  0  0  0  0  0
    0.7018   -0.1725   -0.1193 H   0  0  0  0  0  0  0  0  0  0  0  0
   -0.1938   -1.2320   -0.7247 H   0  0  0  0  0  0  0  0  0  0  0  0
  1  5  1  0  0  0  0
  2  1  1  0  0  0  0
  2  8  1  0  0  0  0
  3  1  1  0  0  0  0
  4  1  1  0  0  0  0
  6  2  1  0  0  0  0
  6  9  1  0  0  0  0
  6 10  1  0  0  0  0
  7  2  1  0  0  0  0
  9 12  1  0  0  0  0
 11  6  1  0  0  0  0
 13  9  1  0  0  0  0
 14  9  1  0  0  0  0
M  END
$$$$
