14
butane_opt
C  -3.934642   0.281006  -0.003761
C  -2.689174  -0.630182   0.061757
H  -4.791337  -0.262082  -0.154706
H  -3.896434   0.788799  -0.802279
H  -4.023427   1.084596   0.962790
C  -1.392380   0.159373   0.025395
H  -2.606482  -1.254648  -0.716492
H  -2.818083  -1.372744   1.029630
C  -0.187709  -0.673854   0.003172
H  -1.378172   0.826538   0.855026
H  -1.435547   0.752490  -0.854021
H  -0.136380  -1.310660   0.961146
H   0.726866  -0.065224   0.002011
H  -0.233396  -1.283430  -0.853307
