butane_opt
 OpenBabel08242015413D

 14 13  0  0  0  0  0  0  0  0999 V2000
   -3.9638    0.2738    0.0400 C   0  0  0  0  0  0  0  0  0  0  0  0
   -2.6989   -0.6361    0.0196 C   0  0  0  0  0  0  0  0  0  0  0  0
   -4.8212   -0.3054   -0.0585 H   0  0  0  0  0  0  0  0  0  0  0  0
   -3.9302    0.7931   -0.7975 H   0  0  0  0  0  0  0  0  0  0  0  0
   -4.0593    1.1045    0.9900 H   0  0  0  0  0  0  0  0  0  0  0  0
   -1.3946    0.1783   -0.0197 C   0  0  0  0  0  0  0  0  0  0  0  0
   -2.7564   -1.2981   -0.8093 H   0  0  0  0  0  0  0  0  0  0  0  0
   -2.6469   -1.2574    0.8856 H   0  0  0  0  0  0  0  0  0  0  0  0
   -0.1633   -0.6817    0.0492 C   0  0  0  0  0  0  0  0  0  0  0  0
   -1.3510    0.8193    0.8215 H   0  0  0  0  0  0  0  0  0  0  0  0
   -1.3195    0.8149   -0.8966 H   0  0  0  0  0  0  0  0  0  0  0  0
   -0.1334   -1.3799    1.0173 H   0  0  0  0  0  0  0  0  0  0  0  0
    0.7411   -0.0976   -0.0211 H   0  0  0  0  0  0  0  0  0  0  0  0
   -0.1050   -1.2702   -0.7427 H   0  0  0  0  0  0  0  0  0  0  0  0
  1  5  1  0  0  0  0
  2  1  1  0  0  0  0
  2  8  1  0  0  0  0
  3  1  1  0  0  0  0
  4  1  1  0  0  0  0
  6  2  1  0  0  0  0
  6  9  1  0  0  0  0
  6 10  1  0  0  0  0
  7  2  1  0  0  0  0
  9 12  1  0  0  0  0
 11  6  1  0  0  0  0
 13  9  1  0  0  0  0
 14  9  1  0  0  0  0
M  END
$$$$
