butane_opt
 OpenBabel08242015413D

 14 13  0  0  0  0  0  0  0  0999 V2000
   -3.9890    0.2782    0.0727 C   0  0  0  0  0  0  0  0  0  0  0  0
   -2.6753   -0.6331   -0.0159 C   0  0  0  0  0  0  0  0  0  0  0  0
   -4.9279   -0.2719    0.0741 H   0  0  0  0  0  0  0  0  0  0  0  0
   -3.9822    0.8145   -0.7835 H   0  0  0  0  0  0  0  0  0  0  0  0
   -3.9795    1.0474    1.0067 H   0  0  0  0  0  0  0  0  0  0  0  0
   -1.3891    0.1765   -0.0653 C   0  0  0  0  0  0  0  0  0  0  0  0
   -2.7717   -1.3036   -0.8433 H   0  0  0  0  0  0  0  0  0  0  0  0
   -2.7014   -1.3838    0.9263 H   0  0  0  0  0  0  0  0  0  0  0  0
   -0.1494   -0.6797    0.0850 C   0  0  0  0  0  0  0  0  0  0  0  0
   -1.4572    0.7927    0.7646 H   0  0  0  0  0  0  0  0  0  0  0  0
   -1.2919    0.8541   -0.9734 H   0  0  0  0  0  0  0  0  0  0  0  0
   -0.2412   -1.2205    0.9574 H   0  0  0  0  0  0  0  0  0  0  0  0
    0.7847   -0.0584    0.2047 H   0  0  0  0  0  0  0  0  0  0  0  0
   -0.0339   -1.4366   -0.8149 H   0  0  0  0  0  0  0  0  0  0  0  0
  1  3  1  0  0  0  0
  1  5  1  0  0  0  0
  2  1  1  0  0  0  0
  2  8  1  0  0  0  0
  4  1  1  0  0  0  0
  6  2  1  0  0  0  0
  6  9  1  0  0  0  0
  6 10  1  0  0  0  0
  7  2  1  0  0  0  0
  9 13  1  0  0  0  0
  9 12  1  0  0  0  0
 11  6  1  0  0  0  0
 14  9  1  0  0  0  0
M  END
$$$$
