14
butane_opt
C  -3.951967   0.262235   0.038051
C  -2.718605  -0.602215   0.036528
H  -4.900932  -0.402879  -0.059748
H  -3.941960   0.760350  -0.803997
H  -3.901418   0.938798   0.952891
C  -1.393151   0.199721  -0.036237
H  -2.734876  -1.254196  -0.819095
H  -2.740743  -1.220761   0.956759
C  -0.153350  -0.717615   0.050269
H  -1.413939   0.964940   0.850655
H  -1.418738   0.835352  -0.958705
H  -0.132312  -1.281315   0.950031
H   0.749491  -0.137614   0.095154
H   0.014602  -1.393220  -0.788735
