14
butane_opt
C  -3.938311   0.292050  -0.029322
C  -2.670625  -0.651957   0.106111
H  -4.817262  -0.306207  -0.013005
H  -4.017795   0.957890  -0.944751
H  -4.001639   0.838543   0.754625
C  -1.408161   0.154477   0.034470
H  -2.665501  -1.157053  -0.641183
H  -2.703049  -1.354316   1.035261
C  -0.187883  -0.662449  -0.015387
H  -1.422517   0.898382   0.959389
H  -1.338800   0.724450  -0.839148
H  -0.175594  -1.012981   0.751105
H   0.699162  -0.104612   0.191923
H  -0.132549  -1.546351  -1.011956
