butane_opt
 OpenBabel08242015413D

 14 13  0  0  0  0  0  0  0  0999 V2000
   -3.9104    0.2718    0.0052 C   0  0  0  0  0  0  0  0  0  0  0  0
   -2.7011   -0.6309    0.0540 C   0  0  0  0  0  0  0  0  0  0  0  0
   -4.8660   -0.3985    0.1110 H   0  0  0  0  0  0  0  0  0  0  0  0
   -3.9934    0.9730   -0.8902 H   0  0  0  0  0  0  0  0  0  0  0  0
   -3.8944    0.8845    0.8470 H   0  0  0  0  0  0  0  0  0  0  0  0
   -1.4111    0.1904    0.0110 C   0  0  0  0  0  0  0  0  0  0  0  0
   -2.6833   -1.2491   -0.7748 H   0  0  0  0  0  0  0  0  0  0  0  0
   -2.7080   -1.2294    0.9096 H   0  0  0  0  0  0  0  0  0  0  0  0
   -0.1827   -0.6913    0.0402 C   0  0  0  0  0  0  0  0  0  0  0  0
   -1.3646    0.7972    0.8379 H   0  0  0  0  0  0  0  0  0  0  0  0
   -1.4384    0.8864   -0.9479 H   0  0  0  0  0  0  0  0  0  0  0  0
   -0.2066   -1.1319    0.8219 H   0  0  0  0  0  0  0  0  0  0  0  0
    0.7063   -0.1112    0.1315 H   0  0  0  0  0  0  0  0  0  0  0  0
   -0.1088   -1.5860   -0.9573 H   0  0  0  0  0  0  0  0  0  0  0  0
  1  2  1  0  0  0  0
  1  3  1  0  0  0  0
  1  5  1  0  0  0  0
  2  8  1  0  0  0  0
  4  1  1  0  0  0  0
  6  9  1  0  0  0  0
  6  2  1  0  0  0  0
  6 10  1  0  0  0  0
  7  2  1  0  0  0  0
  9 13  1  0  0  0  0
  9 12  1  0  0  0  0
 11  6  1  0  0  0  0
 14  9  1  0  0  0  0
M  END
$$$$
