butane_opt
 OpenBabel08242015413D

 14 13  0  0  0  0  0  0  0  0999 V2000
   -3.9737    0.2702    0.0005 C   0  0  0  0  0  0  0  0  0  0  0  0
   -2.6894   -0.6247    0.0715 C   0  0  0  0  0  0  0  0  0  0  0  0
   -4.8909   -0.3403    0.0024 H   0  0  0  0  0  0  0  0  0  0  0  0
   -3.9921    0.9524   -0.9166 H   0  0  0  0  0  0  0  0  0  0  0  0
   -3.9826    0.8763    0.8168 H   0  0  0  0  0  0  0  0  0  0  0  0
   -1.4010    0.1855    0.0126 C   0  0  0  0  0  0  0  0  0  0  0  0
   -2.6716   -1.2206   -0.7380 H   0  0  0  0  0  0  0  0  0  0  0  0
   -2.6841   -1.3183    1.0416 H   0  0  0  0  0  0  0  0  0  0  0  0
   -0.1558   -0.6944    0.0031 C   0  0  0  0  0  0  0  0  0  0  0  0
   -1.2535    0.8824    0.8494 H   0  0  0  0  0  0  0  0  0  0  0  0
   -1.4702    0.7404   -0.8302 H   0  0  0  0  0  0  0  0  0  0  0  0
   -0.2288   -1.1501    0.8230 H   0  0  0  0  0  0  0  0  0  0  0  0
    0.7946   -0.0316    0.2462 H   0  0  0  0  0  0  0  0  0  0  0  0
   -0.0055   -1.5069   -0.9254 H   0  0  0  0  0  0  0  0  0  0  0  0
  1  3  1  0  0  0  0
  1  2  1  0  0  0  0
  1  5  1  0  0  0  0
  2  8  1  0  0  0  0
  4  1  1  0  0  0  0
  6  2  1  0  0  0  0
  6 10  1  0  0  0  0
  7  2  1  0  0  0  0
  9  6  1  0  0  0  0
  9 13  1  0  0  0  0
  9 12  1  0  0  0  0
 11  6  1  0  0  0  0
 14  9  1  0  0  0  0
M  END
$$$$
