14
butane_opt
C  -3.953665   0.262314   0.051655
C  -2.727096  -0.625086   0.014659
H  -4.833615  -0.351434  -0.044219
H  -3.896992   0.750972  -0.785294
H  -3.945743   1.030698   0.964395
C  -1.392501   0.208123  -0.021100
H  -2.708939  -1.375383  -0.918003
H  -2.751124  -1.129175   0.833529
C  -0.145335  -0.705814   0.063929
H  -1.376304   0.946949   0.844967
H  -1.400440   0.873206  -0.971070
H  -0.093827  -1.491229   1.092228
H   0.682607  -0.176838  -0.188769
H  -0.078480  -1.233976  -0.667107
