butane_opt
 OpenBabel08242015413D

 14 13  0  0  0  0  0  0  0  0999 V2000
   -3.9351    0.2420   -0.0238 C   0  0  0  0  0  0  0  0  0  0  0  0
   -2.7192   -0.6037    0.0560 C   0  0  0  0  0  0  0  0  0  0  0  0
   -4.8517   -0.3280    0.0221 H   0  0  0  0  0  0  0  0  0  0  0  0
   -3.9923    0.8397   -0.8872 H   0  0  0  0  0  0  0  0  0  0  0  0
   -3.9303    0.9203    0.8340 H   0  0  0  0  0  0  0  0  0  0  0  0
   -1.3959    0.2216    0.0723 C   0  0  0  0  0  0  0  0  0  0  0  0
   -2.7775   -1.3259   -0.8413 H   0  0  0  0  0  0  0  0  0  0  0  0
   -2.7825   -1.1649    0.9226 H   0  0  0  0  0  0  0  0  0  0  0  0
   -0.1497   -0.7270    0.0118 C   0  0  0  0  0  0  0  0  0  0  0  0
   -1.3966    0.9136    0.9658 H   0  0  0  0  0  0  0  0  0  0  0  0
   -1.4511    0.9456   -0.8406 H   0  0  0  0  0  0  0  0  0  0  0  0
    0.0549   -1.4528    0.9528 H   0  0  0  0  0  0  0  0  0  0  0  0
    0.7356   -0.1384   -0.3251 H   0  0  0  0  0  0  0  0  0  0  0  0
   -0.2253   -1.2819   -0.7559 H   0  0  0  0  0  0  0  0  0  0  0  0
  1  3  1  0  0  0  0
  1  2  1  0  0  0  0
  1  5  1  0  0  0  0
  2  6  1  0  0  0  0
  2  8  1  0  0  0  0
  4  1  1  0  0  0  0
  6 10  1  0  0  0  0
  7  2  1  0  0  0  0
  9  6  1  0  0  0  0
  9 12  1  0  0  0  0
 11  6  1  0  0  0  0
 13  9  1  0  0  0  0
 14  9  1  0  0  0  0
M  END
$$$$
