14
butane_opt
C  -3.988954   0.278175   0.072709
C  -2.675310  -0.633126  -0.015866
H  -4.927919  -0.271924   0.074071
H  -3.982170   0.814532  -0.783452
H  -3.979459   1.047409   1.006698
C  -1.389116   0.176510  -0.065332
H  -2.771668  -1.303581  -0.843257
H  -2.701433  -1.383821   0.926309
C  -0.149399  -0.679696   0.085019
H  -1.457197   0.792685   0.764638
H  -1.291865   0.854136  -0.973447
H  -0.241161  -1.220530   0.957432
H   0.784738  -0.058397   0.204704
H  -0.033933  -1.436560  -0.814887
