butane_opt
 OpenBabel08242015413D

 14 13  0  0  0  0  0  0  0  0999 V2000
   -3.9564    0.2475    0.0714 C   0  0  0  0  0  0  0  0  0  0  0  0
   -2.6982   -0.5984   -0.0390 C   0  0  0  0  0  0  0  0  0  0  0  0
   -4.9414   -0.3976    0.2370 H   0  0  0  0  0  0  0  0  0  0  0  0
   -4.0148    0.9450   -0.8591 H   0  0  0  0  0  0  0  0  0  0  0  0
   -3.8497    0.8607    0.9323 H   0  0  0  0  0  0  0  0  0  0  0  0
   -1.4080    0.2157   -0.0213 C   0  0  0  0  0  0  0  0  0  0  0  0
   -2.7902   -1.3761   -0.9514 H   0  0  0  0  0  0  0  0  0  0  0  0
   -2.6892   -1.1563    0.8410 H   0  0  0  0  0  0  0  0  0  0  0  0
   -0.1350   -0.7124    0.0886 C   0  0  0  0  0  0  0  0  0  0  0  0
   -1.5425    0.8045    0.7299 H   0  0  0  0  0  0  0  0  0  0  0  0
   -1.2692    0.8968   -0.9496 H   0  0  0  0  0  0  0  0  0  0  0  0
   -0.1562   -1.3619    1.0312 H   0  0  0  0  0  0  0  0  0  0  0  0
    0.7257   -0.1486   -0.0044 H   0  0  0  0  0  0  0  0  0  0  0  0
   -0.1061   -1.3799   -0.7817 H   0  0  0  0  0  0  0  0  0  0  0  0
  1  3  1  0  0  0  0
  1  5  1  0  0  0  0
  2  6  1  0  0  0  0
  2  1  1  0  0  0  0
  2  8  1  0  0  0  0
  4  1  1  0  0  0  0
  6  9  1  0  0  0  0
  6 10  1  0  0  0  0
  7  2  1  0  0  0  0
  9 12  1  0  0  0  0
 11  6  1  0  0  0  0
 13  9  1  0  0  0  0
 14  9  1  0  0  0  0
M  END
$$$$
