butane_opt
 OpenBabel08242015413D

 14 13  0  0  0  0  0  0  0  0999 V2000
   -3.9306    0.2481    0.0677 C   0  0  0  0  0  0  0  0  0  0  0  0
   -2.6921   -0.5991   -0.0095 C   0  0  0  0  0  0  0  0  0  0  0  0
   -4.8626   -0.3945    0.1087 H   0  0  0  0  0  0  0  0  0  0  0  0
   -3.9896    0.7078   -0.7620 H   0  0  0  0  0  0  0  0  0  0  0  0
   -3.9065    1.0006    1.0266 H   0  0  0  0  0  0  0  0  0  0  0  0
   -1.4240    0.2233   -0.0766 C   0  0  0  0  0  0  0  0  0  0  0  0
   -2.7287   -1.2615   -0.8663 H   0  0  0  0  0  0  0  0  0  0  0  0
   -2.6549   -1.2693    0.9271 H   0  0  0  0  0  0  0  0  0  0  0  0
   -0.1744   -0.7161    0.0961 C   0  0  0  0  0  0  0  0  0  0  0  0
   -1.5028    0.8571    0.7563 H   0  0  0  0  0  0  0  0  0  0  0  0
   -1.2705    0.8929   -0.9979 H   0  0  0  0  0  0  0  0  0  0  0  0
   -0.2001   -1.3122    0.9429 H   0  0  0  0  0  0  0  0  0  0  0  0
    0.7492   -0.0996    0.2099 H   0  0  0  0  0  0  0  0  0  0  0  0
    0.0048   -1.4749   -0.8351 H   0  0  0  0  0  0  0  0  0  0  0  0
  1  3  1  0  0  0  0
  1  5  1  0  0  0  0
  2  1  1  0  0  0  0
  2  8  1  0  0  0  0
  4  1  1  0  0  0  0
  6  2  1  0  0  0  0
  6  9  1  0  0  0  0
  6 10  1  0  0  0  0
  7  2  1  0  0  0  0
  9 13  1  0  0  0  0
  9 12  1  0  0  0  0
 11  6  1  0  0  0  0
 14  9  1  0  0  0  0
M  END
$$$$
