14
butane_opt
C  -3.958856   0.254597   0.032592
C  -2.726038  -0.594063   0.028403
H  -4.922262  -0.430993   0.067538
H  -3.966788   0.780839  -0.783543
H  -3.994585   0.964836   0.906363
C  -1.390021   0.222826  -0.027139
H  -2.711183  -1.186063  -0.787930
H  -2.665544  -1.330061   0.966577
C  -0.137236  -0.724218   0.050332
H  -1.432176   0.830557   0.783785
H  -1.321079   0.809681  -0.932895
H  -0.182782  -1.215437   0.879335
H   0.744789  -0.136902   0.219352
H  -0.005978  -1.484698  -0.891794
