butane_opt
 OpenBabel08242015413D

 14 13  0  0  0  0  0  0  0  0999 V2000
   -3.9249    0.2750    0.0383 C   0  0  0  0  0  0  0  0  0  0  0  0
   -2.6916   -0.6413   -0.0009 C   0  0  0  0  0  0  0  0  0  0  0  0
   -4.8181   -0.2686    0.0144 H   0  0  0  0  0  0  0  0  0  0  0  0
   -4.0887    0.8344   -0.8151 H   0  0  0  0  0  0  0  0  0  0  0  0
   -3.8799    1.0502    0.9313 H   0  0  0  0  0  0  0  0  0  0  0  0
   -1.4089    0.1721    0.0026 C   0  0  0  0  0  0  0  0  0  0  0  0
   -2.6769   -1.3543   -0.8909 H   0  0  0  0  0  0  0  0  0  0  0  0
   -2.7064   -1.2498    0.8871 H   0  0  0  0  0  0  0  0  0  0  0  0
   -0.1873   -0.6817    0.0531 C   0  0  0  0  0  0  0  0  0  0  0  0
   -1.4876    0.8993    0.9044 H   0  0  0  0  0  0  0  0  0  0  0  0
   -1.3548    0.8091   -0.8855 H   0  0  0  0  0  0  0  0  0  0  0  0
   -0.0752   -1.5081    1.1012 H   0  0  0  0  0  0  0  0  0  0  0  0
    0.8119   -0.0140   -0.1948 H   0  0  0  0  0  0  0  0  0  0  0  0
   -0.2156   -1.1447   -0.7113 H   0  0  0  0  0  0  0  0  0  0  0  0
  1  5  1  0  0  0  0
  2  6  1  0  0  0  0
  2  1  1  0  0  0  0
  2  8  1  0  0  0  0
  3  1  1  0  0  0  0
  4  1  1  0  0  0  0
  6  9  1  0  0  0  0
  6 10  1  0  0  0  0
  7  2  1  0  0  0  0
  9 12  1  0  0  0  0
 11  6  1  0  0  0  0
 13  9  1  0  0  0  0
 14  9  1  0  0  0  0
M  END
$$$$
