butane_opt
 OpenBabel08242015413D

 14 13  0  0  0  0  0  0  0  0999 V2000
   -3.9232    0.2839   -0.0372 C   0  0  0  0  0  0  0  0  0  0  0  0
   -2.6893   -0.6350    0.0775 C   0  0  0  0  0  0  0  0  0  0  0  0
   -4.8309   -0.2827    0.0142 H   0  0  0  0  0  0  0  0  0  0  0  0
   -3.8772    0.9019   -0.9622 H   0  0  0  0  0  0  0  0  0  0  0  0
   -4.0194    0.9066    0.8121 H   0  0  0  0  0  0  0  0  0  0  0  0
   -1.4094    0.1754    0.0826 C   0  0  0  0  0  0  0  0  0  0  0  0
   -2.6738   -1.3387   -0.7855 H   0  0  0  0  0  0  0  0  0  0  0  0
   -2.7730   -1.3125    1.0115 H   0  0  0  0  0  0  0  0  0  0  0  0
   -0.1733   -0.6820   -0.0283 C   0  0  0  0  0  0  0  0  0  0  0  0
   -1.3875    0.9484    1.0415 H   0  0  0  0  0  0  0  0  0  0  0  0
   -1.4371    0.7049   -0.7188 H   0  0  0  0  0  0  0  0  0  0  0  0
   -0.1154   -1.4435    0.9778 H   0  0  0  0  0  0  0  0  0  0  0  0
    0.7206   -0.0654   -0.2567 H   0  0  0  0  0  0  0  0  0  0  0  0
   -0.2963   -1.1860   -0.8177 H   0  0  0  0  0  0  0  0  0  0  0  0
  1  3  1  0  0  0  0
  1  2  1  0  0  0  0
  1  5  1  0  0  0  0
  2  6  1  0  0  0  0
  2  8  1  0  0  0  0
  4  1  1  0  0  0  0
  6 10  1  0  0  0  0
  7  2  1  0  0  0  0
  9  6  1  0  0  0  0
  9 12  1  0  0  0  0
 11  6  1  0  0  0  0
 13  9  1  0  0  0  0
 14  9  1  0  0  0  0
M  END
$$$$
