butane_opt
 OpenBabel08242015413D

 14 13  0  0  0  0  0  0  0  0999 V2000
   -3.9181    0.2409    0.0326 C   0  0  0  0  0  0  0  0  0  0  0  0
   -2.6912   -0.5944    0.0077 C   0  0  0  0  0  0  0  0  0  0  0  0
   -4.8963   -0.4442    0.0857 H   0  0  0  0  0  0  0  0  0  0  0  0
   -3.9393    0.8150   -0.8348 H   0  0  0  0  0  0  0  0  0  0  0  0
   -3.9362    0.9682    0.8843 H   0  0  0  0  0  0  0  0  0  0  0  0
   -1.4323    0.2192    0.0131 C   0  0  0  0  0  0  0  0  0  0  0  0
   -2.6761   -1.2897   -0.8783 H   0  0  0  0  0  0  0  0  0  0  0  0
   -2.7197   -1.1919    0.8577 H   0  0  0  0  0  0  0  0  0  0  0  0
   -0.1717   -0.7213    0.0310 C   0  0  0  0  0  0  0  0  0  0  0  0
   -1.3736    0.9859    0.9343 H   0  0  0  0  0  0  0  0  0  0  0  0
   -1.3745    0.8074   -0.8659 H   0  0  0  0  0  0  0  0  0  0  0  0
   -0.0992   -1.5703    1.1173 H   0  0  0  0  0  0  0  0  0  0  0  0
    0.7022   -0.1324   -0.1519 H   0  0  0  0  0  0  0  0  0  0  0  0
   -0.1310   -1.1711   -0.6852 H   0  0  0  0  0  0  0  0  0  0  0  0
  1  3  1  0  0  0  0
  1  5  1  0  0  0  0
  2  6  1  0  0  0  0
  2  1  1  0  0  0  0
  2  8  1  0  0  0  0
  4  1  1  0  0  0  0
  6  9  1  0  0  0  0
  6 10  1  0  0  0  0
  7  2  1  0  0  0  0
  9 12  1  0  0  0  0
 11  6  1  0  0  0  0
 13  9  1  0  0  0  0
 14  9  1  0  0  0  0
M  END
$$$$
