14
butane_opt
C  -3.939485   0.258282   0.037142
C  -2.699093  -0.613778   0.030003
H  -4.840625  -0.301215  -0.016023
H  -3.916826   0.816057  -0.806425
H  -3.949764   0.995005   0.938787
C  -1.398145   0.195179  -0.018184
H  -2.767814  -1.357943  -0.857526
H  -2.690820  -1.213387   0.890323
C  -0.167471  -0.700532   0.055446
H  -1.421739   0.861498   0.809221
H  -1.418841   0.857533  -0.949477
H  -0.193684  -1.344334   0.958958
H   0.730100  -0.105070   0.002482
H  -0.106276  -1.348751  -0.778205
