14
butane_opt
C  -3.906802   0.246671   0.080898
C  -2.720170  -0.598006   0.002940
H  -4.850416  -0.366084  -0.119188
H  -3.918009   0.725172  -0.734764
H  -4.024467   1.067497   1.020464
C  -1.409501   0.204003  -0.068429
H  -2.824423  -1.284809  -0.867251
H  -2.708448  -1.219142   0.865172
C  -0.152914  -0.705927   0.082041
H  -1.471007   0.873183   0.722244
H  -1.429187   0.866012  -1.000331
H  -0.157257  -1.388258   0.971575
H   0.699625  -0.183230   0.142487
H  -0.053314  -1.335927  -0.704177
