14
butane_opt
C  -3.923199   0.283917  -0.037250
C  -2.689309  -0.635002   0.077548
H  -4.830854  -0.282745   0.014241
H  -3.877208   0.901869  -0.962184
H  -4.019388   0.906648   0.812078
C  -1.409425   0.175431   0.082596
H  -2.673834  -1.338675  -0.785525
H  -2.773046  -1.312509   1.011485
C  -0.173258  -0.681953  -0.028331
H  -1.387474   0.948416   1.041506
H  -1.437143   0.704902  -0.718822
H  -0.115398  -1.443476   0.977798
H   0.720590  -0.065435  -0.256746
H  -0.296305  -1.185998  -0.817738
