14
butane_opt
C  -3.959831   0.286890  -0.018498
C  -2.687280  -0.636663   0.057919
H  -4.819144  -0.289714   0.178326
H  -4.174190   1.062603  -1.023238
H  -3.946501   0.804811   0.747478
C  -1.382595   0.163222   0.061305
H  -2.692280  -1.252942  -0.729024
H  -2.824129  -1.303074   1.018631
C  -0.160879  -0.678966  -0.018202
H  -1.370353   0.860010   0.914150
H  -1.349983   0.700276  -0.737617
H  -0.213279  -1.201167   0.830331
H   0.794888  -0.033315   0.103038
H  -0.141007  -1.416217  -0.884895
