butane_opt
 OpenBabel08242015413D

 14 13  0  0  0  0  0  0  0  0999 V2000
   -3.9589    0.2546    0.0326 C   0  0  0  0  0  0  0  0  0  0  0  0
   -2.7260   -0.5941    0.0284 C   0  0  0  0  0  0  0  0  0  0  0  0
   -4.9223   -0.4310    0.0675 H   0  0  0  0  0  0  0  0  0  0  0  0
   -3.9668    0.7808   -0.7835 H   0  0  0  0  0  0  0  0  0  0  0  0
   -3.9946    0.9648    0.9064 H   0  0  0  0  0  0  0  0  0  0  0  0
   -1.3900    0.2228   -0.0271 C   0  0  0  0  0  0  0  0  0  0  0  0
   -2.7112   -1.1861   -0.7879 H   0  0  0  0  0  0  0  0  0  0  0  0
   -2.6655   -1.3301    0.9666 H   0  0  0  0  0  0  0  0  0  0  0  0
   -0.1372   -0.7242    0.0503 C   0  0  0  0  0  0  0  0  0  0  0  0
   -1.4322    0.8306    0.7838 H   0  0  0  0  0  0  0  0  0  0  0  0
   -1.3211    0.8097   -0.9329 H   0  0  0  0  0  0  0  0  0  0  0  0
   -0.1828   -1.2154    0.8793 H   0  0  0  0  0  0  0  0  0  0  0  0
    0.7448   -0.1369    0.2194 H   0  0  0  0  0  0  0  0  0  0  0  0
   -0.0060   -1.4847   -0.8918 H   0  0  0  0  0  0  0  0  0  0  0  0
  1  3  1  0  0  0  0
  1  5  1  0  0  0  0
  2  1  1  0  0  0  0
  2  8  1  0  0  0  0
  4  1  1  0  0  0  0
  6  2  1  0  0  0  0
  6  9  1  0  0  0  0
  6 10  1  0  0  0  0
  7  2  1  0  0  0  0
  9 13  1  0  0  0  0
  9 12  1  0  0  0  0
 11  6  1  0  0  0  0
 14  9  1  0  0  0  0
M  END
$$$$
