butane_opt
 OpenBabel08242015413D

 14 13  0  0  0  0  0  0  0  0999 V2000
   -3.9276    0.2799   -0.0226 C   0  0  0  0  0  0  0  0  0  0  0  0
   -2.6817   -0.6188    0.0753 C   0  0  0  0  0  0  0  0  0  0  0  0
   -4.7972   -0.3027   -0.1279 H   0  0  0  0  0  0  0  0  0  0  0  0
   -3.9570    0.7235   -0.8126 H   0  0  0  0  0  0  0  0  0  0  0  0
   -4.0479    1.0402    0.8840 H   0  0  0  0  0  0  0  0  0  0  0  0
   -1.4303    0.1564    0.0338 C   0  0  0  0  0  0  0  0  0  0  0  0
   -2.6310   -1.2730   -0.6980 H   0  0  0  0  0  0  0  0  0  0  0  0
   -2.7274   -1.3382    1.0458 H   0  0  0  0  0  0  0  0  0  0  0  0
   -0.1734   -0.6767    0.0004 C   0  0  0  0  0  0  0  0  0  0  0  0
   -1.2680    0.8617    0.9233 H   0  0  0  0  0  0  0  0  0  0  0  0
   -1.4612    0.7823   -0.8312 H   0  0  0  0  0  0  0  0  0  0  0  0
   -0.0963   -1.3155    0.9242 H   0  0  0  0  0  0  0  0  0  0  0  0
    0.7903   -0.0123   -0.0518 H   0  0  0  0  0  0  0  0  0  0  0  0
   -0.2795   -1.3181   -0.8331 H   0  0  0  0  0  0  0  0  0  0  0  0
  1  2  1  0  0  0  0
  1  5  1  0  0  0  0
  2  8  1  0  0  0  0
  3  1  1  0  0  0  0
  4  1  1  0  0  0  0
  6  2  1  0  0  0  0
  6 10  1  0  0  0  0
  7  2  1  0  0  0  0
  9  6  1  0  0  0  0
  9 12  1  0  0  0  0
 11  6  1  0  0  0  0
 13  9  1  0  0  0  0
 14  9  1  0  0  0  0
M  END
$$$$
