14
butane_opt
C  -3.918111   0.240896   0.032553
C  -2.691217  -0.594383   0.007656
H  -4.896309  -0.444173   0.085680
H  -3.939329   0.815042  -0.834784
H  -3.936214   0.968241   0.884301
C  -1.432275   0.219226   0.013104
H  -2.676103  -1.289733  -0.878316
H  -2.719683  -1.191924   0.857749
C  -0.171713  -0.721345   0.030983
H  -1.373618   0.985858   0.934343
H  -1.374525   0.807353  -0.865950
H  -0.099246  -1.570327   1.117253
H   0.702195  -0.132448  -0.151912
H  -0.131021  -1.171144  -0.685244
