14
butane_opt
C  -3.927624   0.247163   0.063309
C  -2.694679  -0.597077  -0.032811
H  -4.817647  -0.281292   0.092785
H  -3.980075   0.795155  -0.767180
H  -3.847726   0.904146   0.971610
C  -1.428578   0.195363  -0.009205
H  -2.749108  -1.368284  -0.948249
H  -2.767117  -1.160697   0.821145
C  -0.162533  -0.698828   0.074200
H  -1.415930   0.839462   0.770062
H  -1.410209   0.916458  -0.971320
H  -0.032871  -1.512940   1.102649
H   0.722130  -0.150541  -0.066667
H  -0.173566  -1.208969  -0.675849
