butane_opt
 OpenBabel08242015413D

 14 13  0  0  0  0  0  0  0  0999 V2000
   -3.9598    0.2869   -0.0185 C   0  0  0  0  0  0  0  0  0  0  0  0
   -2.6873   -0.6367    0.0579 C   0  0  0  0  0  0  0  0  0  0  0  0
   -4.8191   -0.2897    0.1783 H   0  0  0  0  0  0  0  0  0  0  0  0
   -4.1742    1.0626   -1.0232 H   0  0  0  0  0  0  0  0  0  0  0  0
   -3.9465    0.8048    0.7475 H   0  0  0  0  0  0  0  0  0  0  0  0
   -1.3826    0.1632    0.0613 C   0  0  0  0  0  0  0  0  0  0  0  0
   -2.6923   -1.2529   -0.7290 H   0  0  0  0  0  0  0  0  0  0  0  0
   -2.8241   -1.3031    1.0186 H   0  0  0  0  0  0  0  0  0  0  0  0
   -0.1609   -0.6790   -0.0182 C   0  0  0  0  0  0  0  0  0  0  0  0
   -1.3704    0.8600    0.9142 H   0  0  0  0  0  0  0  0  0  0  0  0
   -1.3500    0.7003   -0.7376 H   0  0  0  0  0  0  0  0  0  0  0  0
   -0.2133   -1.2012    0.8303 H   0  0  0  0  0  0  0  0  0  0  0  0
    0.7949   -0.0333    0.1030 H   0  0  0  0  0  0  0  0  0  0  0  0
   -0.1410   -1.4162   -0.8849 H   0  0  0  0  0  0  0  0  0  0  0  0
  1  2  1  0  0  0  0
  1  3  1  0  0  0  0
  1  5  1  0  0  0  0
  2  6  1  0  0  0  0
  2  8  1  0  0  0  0
  4  1  1  0  0  0  0
  6 10  1  0  0  0  0
  7  2  1  0  0  0  0
  9  6  1  0  0  0  0
  9 13  1  0  0  0  0
  9 12  1  0  0  0  0
 11  6  1  0  0  0  0
 14  9  1  0  0  0  0
M  END
$$$$
