14
butane_opt
C  -3.927613   0.279926  -0.022608
C  -2.681708  -0.618750   0.075289
H  -4.797150  -0.302675  -0.127867
H  -3.957016   0.723530  -0.812637
H  -4.047882   1.040190   0.884033
C  -1.430349   0.156368   0.033795
H  -2.630958  -1.273036  -0.698008
H  -2.727369  -1.338242   1.045808
C  -0.173449  -0.676738   0.000385
H  -1.267973   0.861711   0.923338
H  -1.461178   0.782323  -0.831208
H  -0.096319  -1.315473   0.924174
H   0.790339  -0.012265  -0.051807
H  -0.279506  -1.318058  -0.833147
