14
butane_opt
C  -3.972088   0.268681  -0.038048
C  -2.700597  -0.635060   0.084183
H  -4.867106  -0.246099   0.060527
H  -4.008534   0.979343  -1.018649
H  -4.001014   0.901081   0.802298
C  -1.371749   0.174742   0.084178
H  -2.675192  -1.275736  -0.739386
H  -2.776195  -1.249860   0.961059
C  -0.162718  -0.683106  -0.021216
H  -1.384318   0.915127   0.940827
H  -1.347958   0.772424  -0.773491
H   0.027724  -1.305236   0.889194
H   0.729676  -0.116764  -0.127616
H  -0.238894  -1.346391  -0.870156
