14
butane_opt
C  -3.931493   0.254186  -0.031676
C  -2.697323  -0.576065   0.079076
H  -4.877676  -0.373295   0.159687
H  -3.915773   0.990693  -1.021091
H  -3.897159   0.688359   0.674870
C  -1.417049   0.180587   0.078633
H  -2.673625  -1.267336  -0.799157
H  -2.748586  -1.224149   1.021334
C  -0.181161  -0.708843  -0.006061
H  -1.389431   0.916281   0.993905
H  -1.320090   0.803498  -0.797649
H  -0.020232  -1.249636   0.762451
H   0.728641  -0.073678  -0.085012
H  -0.186436  -1.483003  -0.944118
