14
butane_opt
C  -3.948047   0.285367   0.052914
C  -2.684755  -0.635317   0.028752
H  -4.853859  -0.308352  -0.196138
H  -3.903198   0.671542  -0.681303
H  -3.986835   1.136514   1.059072
C  -1.400308   0.173465  -0.043113
H  -2.687811  -1.466310  -0.939661
H  -2.648647  -1.220914   0.900808
C  -0.182479  -0.677939   0.064245
H  -1.439537   0.726587   0.757918
H  -1.382745   0.915727  -0.991720
H  -0.150246  -1.405614   1.020060
H   0.717502  -0.046760  -0.012679
H  -0.115958  -1.211518  -0.680573
