butane_opt
 OpenBabel08242015413D

 14 13  0  0  0  0  0  0  0  0999 V2000
   -3.9721    0.2687   -0.0380 C   0  0  0  0  0  0  0  0  0  0  0  0
   -2.7006   -0.6351    0.0842 C   0  0  0  0  0  0  0  0  0  0  0  0
   -4.8671   -0.2461    0.0605 H   0  0  0  0  0  0  0  0  0  0  0  0
   -4.0085    0.9793   -1.0186 H   0  0  0  0  0  0  0  0  0  0  0  0
   -4.0010    0.9011    0.8023 H   0  0  0  0  0  0  0  0  0  0  0  0
   -1.3717    0.1747    0.0842 C   0  0  0  0  0  0  0  0  0  0  0  0
   -2.6752   -1.2757   -0.7394 H   0  0  0  0  0  0  0  0  0  0  0  0
   -2.7762   -1.2499    0.9611 H   0  0  0  0  0  0  0  0  0  0  0  0
   -0.1627   -0.6831   -0.0212 C   0  0  0  0  0  0  0  0  0  0  0  0
   -1.3843    0.9151    0.9408 H   0  0  0  0  0  0  0  0  0  0  0  0
   -1.3480    0.7724   -0.7735 H   0  0  0  0  0  0  0  0  0  0  0  0
    0.0277   -1.3052    0.8892 H   0  0  0  0  0  0  0  0  0  0  0  0
    0.7297   -0.1168   -0.1276 H   0  0  0  0  0  0  0  0  0  0  0  0
   -0.2389   -1.3464   -0.8702 H   0  0  0  0  0  0  0  0  0  0  0  0
  1  3  1  0  0  0  0
  1  2  1  0  0  0  0
  1  5  1  0  0  0  0
  2  8  1  0  0  0  0
  4  1  1  0  0  0  0
  6  2  1  0  0  0  0
  6 10  1  0  0  0  0
  7  2  1  0  0  0  0
  9  6  1  0  0  0  0
  9 12  1  0  0  0  0
 11  6  1  0  0  0  0
 13  9  1  0  0  0  0
 14  9  1  0  0  0  0
M  END
$$$$
