butane_opt
 OpenBabel08242015413D

 14 13  0  0  0  0  0  0  0  0999 V2000
   -3.9315    0.2542   -0.0317 C   0  0  0  0  0  0  0  0  0  0  0  0
   -2.6973   -0.5761    0.0791 C   0  0  0  0  0  0  0  0  0  0  0  0
   -4.8777   -0.3733    0.1597 H   0  0  0  0  0  0  0  0  0  0  0  0
   -3.9158    0.9907   -1.0211 H   0  0  0  0  0  0  0  0  0  0  0  0
   -3.8972    0.6884    0.6749 H   0  0  0  0  0  0  0  0  0  0  0  0
   -1.4170    0.1806    0.0786 C   0  0  0  0  0  0  0  0  0  0  0  0
   -2.6736   -1.2673   -0.7992 H   0  0  0  0  0  0  0  0  0  0  0  0
   -2.7486   -1.2241    1.0213 H   0  0  0  0  0  0  0  0  0  0  0  0
   -0.1812   -0.7088   -0.0061 C   0  0  0  0  0  0  0  0  0  0  0  0
   -1.3894    0.9163    0.9939 H   0  0  0  0  0  0  0  0  0  0  0  0
   -1.3201    0.8035   -0.7976 H   0  0  0  0  0  0  0  0  0  0  0  0
   -0.0202   -1.2496    0.7625 H   0  0  0  0  0  0  0  0  0  0  0  0
    0.7286   -0.0737   -0.0850 H   0  0  0  0  0  0  0  0  0  0  0  0
   -0.1864   -1.4830   -0.9441 H   0  0  0  0  0  0  0  0  0  0  0  0
  1  2  1  0  0  0  0
  1  3  1  0  0  0  0
  1  5  1  0  0  0  0
  2  8  1  0  0  0  0
  4  1  1  0  0  0  0
  6  2  1  0  0  0  0
  6 10  1  0  0  0  0
  7  2  1  0  0  0  0
  9  6  1  0  0  0  0
  9 12  1  0  0  0  0
 11  6  1  0  0  0  0
 13  9  1  0  0  0  0
 14  9  1  0  0  0  0
M  END
$$$$
