14
butane_opt
C  -3.950816   0.260513   0.003732
C  -2.718210  -0.623281   0.064370
H  -4.884504  -0.315805  -0.227764
H  -3.938086   0.668515  -0.722135
H  -3.985423   1.131959   0.988391
C  -1.403772   0.216350   0.001327
H  -2.730697  -1.291046  -0.811480
H  -2.667414  -1.365093   1.005415
C  -0.148897  -0.702210   0.032233
H  -1.374132   0.863179   0.841473
H  -1.405460   0.860297  -0.913387
H  -0.042502  -1.381801   0.967839
H   0.744668  -0.148710  -0.069000
H  -0.083852  -1.314926  -0.822637
