butane_opt
 OpenBabel08242015413D

 14 13  0  0  0  0  0  0  0  0999 V2000
   -3.9471    0.2896   -0.0001 C   0  0  0  0  0  0  0  0  0  0  0  0
   -2.6660   -0.6584    0.0253 C   0  0  0  0  0  0  0  0  0  0  0  0
   -4.8668   -0.3152    0.2318 H   0  0  0  0  0  0  0  0  0  0  0  0
   -4.0652    1.0630   -0.9886 H   0  0  0  0  0  0  0  0  0  0  0  0
   -3.8850    0.8604    0.8258 H   0  0  0  0  0  0  0  0  0  0  0  0
   -1.4069    0.1717    0.0478 C   0  0  0  0  0  0  0  0  0  0  0  0
   -2.6632   -1.3278   -0.7910 H   0  0  0  0  0  0  0  0  0  0  0  0
   -2.7161   -1.2808    0.8982 H   0  0  0  0  0  0  0  0  0  0  0  0
   -0.1939   -0.6692    0.0163 C   0  0  0  0  0  0  0  0  0  0  0  0
   -1.4237    0.8457    0.9217 H   0  0  0  0  0  0  0  0  0  0  0  0
   -1.3339    0.7566   -0.7800 H   0  0  0  0  0  0  0  0  0  0  0  0
   -0.1297   -1.2800    0.9183 H   0  0  0  0  0  0  0  0  0  0  0  0
    0.7719   -0.0787   -0.0603 H   0  0  0  0  0  0  0  0  0  0  0  0
   -0.1590   -1.2981   -0.8273 H   0  0  0  0  0  0  0  0  0  0  0  0
  1  2  1  0  0  0  0
  1  3  1  0  0  0  0
  1  5  1  0  0  0  0
  2  6  1  0  0  0  0
  2  8  1  0  0  0  0
  4  1  1  0  0  0  0
  6 10  1  0  0  0  0
  7  2  1  0  0  0  0
  9  6  1  0  0  0  0
  9 12  1  0  0  0  0
 11  6  1  0  0  0  0
 13  9  1  0  0  0  0
 14  9  1  0  0  0  0
M  END
$$$$
