butane_opt
 OpenBabel08242015413D

 14 13  0  0  0  0  0  0  0  0999 V2000
   -3.9786    0.2698    0.0052 C   0  0  0  0  0  0  0  0  0  0  0  0
   -2.7052   -0.6274    0.0578 C   0  0  0  0  0  0  0  0  0  0  0  0
   -4.8117   -0.2299    0.1868 H   0  0  0  0  0  0  0  0  0  0  0  0
   -4.0570    1.1453   -1.0541 H   0  0  0  0  0  0  0  0  0  0  0  0
   -3.9456    0.7101    0.6915 H   0  0  0  0  0  0  0  0  0  0  0  0
   -1.3822    0.1689    0.0284 C   0  0  0  0  0  0  0  0  0  0  0  0
   -2.7202   -1.2521   -0.8142 H   0  0  0  0  0  0  0  0  0  0  0  0
   -2.7132   -1.2449    0.9435 H   0  0  0  0  0  0  0  0  0  0  0  0
   -0.1488   -0.6881    0.0076 C   0  0  0  0  0  0  0  0  0  0  0  0
   -1.3417    0.9418    0.9647 H   0  0  0  0  0  0  0  0  0  0  0  0
   -1.3594    0.6662   -0.7533 H   0  0  0  0  0  0  0  0  0  0  0  0
   -0.1665   -1.1675    0.8344 H   0  0  0  0  0  0  0  0  0  0  0  0
    0.8171   -0.0543    0.0991 H   0  0  0  0  0  0  0  0  0  0  0  0
   -0.1535   -1.4514   -0.8886 H   0  0  0  0  0  0  0  0  0  0  0  0
  1  2  1  0  0  0  0
  1  3  1  0  0  0  0
  1  5  1  0  0  0  0
  2  8  1  0  0  0  0
  4  1  1  0  0  0  0
  6  2  1  0  0  0  0
  6 10  1  0  0  0  0
  7  2  1  0  0  0  0
  9  6  1  0  0  0  0
  9 13  1  0  0  0  0
  9 12  1  0  0  0  0
 11  6  1  0  0  0  0
 14  9  1  0  0  0  0
M  END
$$$$
