butane_opt
 OpenBabel08242015413D

 14 13  0  0  0  0  0  0  0  0999 V2000
   -3.9480    0.2854    0.0529 C   0  0  0  0  0  0  0  0  0  0  0  0
   -2.6848   -0.6353    0.0288 C   0  0  0  0  0  0  0  0  0  0  0  0
   -4.8539   -0.3084   -0.1961 H   0  0  0  0  0  0  0  0  0  0  0  0
   -3.9032    0.6715   -0.6813 H   0  0  0  0  0  0  0  0  0  0  0  0
   -3.9868    1.1365    1.0591 H   0  0  0  0  0  0  0  0  0  0  0  0
   -1.4003    0.1735   -0.0431 C   0  0  0  0  0  0  0  0  0  0  0  0
   -2.6878   -1.4663   -0.9397 H   0  0  0  0  0  0  0  0  0  0  0  0
   -2.6486   -1.2209    0.9008 H   0  0  0  0  0  0  0  0  0  0  0  0
   -0.1825   -0.6779    0.0642 C   0  0  0  0  0  0  0  0  0  0  0  0
   -1.4395    0.7266    0.7579 H   0  0  0  0  0  0  0  0  0  0  0  0
   -1.3827    0.9157   -0.9917 H   0  0  0  0  0  0  0  0  0  0  0  0
   -0.1502   -1.4056    1.0201 H   0  0  0  0  0  0  0  0  0  0  0  0
    0.7175   -0.0468   -0.0127 H   0  0  0  0  0  0  0  0  0  0  0  0
   -0.1160   -1.2115   -0.6806 H   0  0  0  0  0  0  0  0  0  0  0  0
  1  5  1  0  0  0  0
  2  1  1  0  0  0  0
  2  8  1  0  0  0  0
  3  1  1  0  0  0  0
  4  1  1  0  0  0  0
  6  2  1  0  0  0  0
  6  9  1  0  0  0  0
  6 10  1  0  0  0  0
  7  2  1  0  0  0  0
  9 12  1  0  0  0  0
 11  6  1  0  0  0  0
 13  9  1  0  0  0  0
 14  9  1  0  0  0  0
M  END
$$$$
