butane_opt
 OpenBabel08242015413D

 14 13  0  0  0  0  0  0  0  0999 V2000
   -3.9202    0.2493    0.0433 C   0  0  0  0  0  0  0  0  0  0  0  0
   -2.7057   -0.5927    0.0073 C   0  0  0  0  0  0  0  0  0  0  0  0
   -4.8348   -0.3717    0.0700 H   0  0  0  0  0  0  0  0  0  0  0  0
   -3.8452    0.8205   -0.8197 H   0  0  0  0  0  0  0  0  0  0  0  0
   -3.9544    0.8930    0.8818 H   0  0  0  0  0  0  0  0  0  0  0  0
   -1.3991    0.1997   -0.0022 C   0  0  0  0  0  0  0  0  0  0  0  0
   -2.7233   -1.3604   -0.8904 H   0  0  0  0  0  0  0  0  0  0  0  0
   -2.7152   -1.0599    0.8003 H   0  0  0  0  0  0  0  0  0  0  0  0
   -0.1921   -0.7095    0.0626 C   0  0  0  0  0  0  0  0  0  0  0  0
   -1.4502    0.9100    0.8503 H   0  0  0  0  0  0  0  0  0  0  0  0
   -1.4000    0.8334   -0.9000 H   0  0  0  0  0  0  0  0  0  0  0  0
    0.0116   -1.5025    1.0201 H   0  0  0  0  0  0  0  0  0  0  0  0
    0.6911   -0.1675   -0.2032 H   0  0  0  0  0  0  0  0  0  0  0  0
   -0.2000   -1.2286   -0.6748 H   0  0  0  0  0  0  0  0  0  0  0  0
  1  3  1  0  0  0  0
  1  5  1  0  0  0  0
  2  1  1  0  0  0  0
  2  8  1  0  0  0  0
  4  1  1  0  0  0  0
  6  2  1  0  0  0  0
  6  9  1  0  0  0  0
  6 10  1  0  0  0  0
  7  2  1  0  0  0  0
  9 12  1  0  0  0  0
 11  6  1  0  0  0  0
 13  9  1  0  0  0  0
 14  9  1  0  0  0  0
M  END
$$$$
