butane_opt
 OpenBabel08242015413D

 14 13  0  0  0  0  0  0  0  0999 V2000
   -3.9376    0.2860    0.0392 C   0  0  0  0  0  0  0  0  0  0  0  0
   -2.6750   -0.6185   -0.0034 C   0  0  0  0  0  0  0  0  0  0  0  0
   -4.8762   -0.3791    0.0242 H   0  0  0  0  0  0  0  0  0  0  0  0
   -4.0497    0.8777   -0.8246 H   0  0  0  0  0  0  0  0  0  0  0  0
   -3.9310    0.9756    0.9425 H   0  0  0  0  0  0  0  0  0  0  0  0
   -1.3977    0.1590    0.0159 C   0  0  0  0  0  0  0  0  0  0  0  0
   -2.7537   -1.4132   -0.9022 H   0  0  0  0  0  0  0  0  0  0  0  0
   -2.6380   -1.1605    0.8359 H   0  0  0  0  0  0  0  0  0  0  0  0
   -0.1922   -0.6752    0.0489 C   0  0  0  0  0  0  0  0  0  0  0  0
   -1.3509    0.7304    0.7898 H   0  0  0  0  0  0  0  0  0  0  0  0
   -1.3621    0.7972   -0.8755 H   0  0  0  0  0  0  0  0  0  0  0  0
   -0.1309   -1.4820    1.1055 H   0  0  0  0  0  0  0  0  0  0  0  0
    0.7482   -0.0714   -0.1355 H   0  0  0  0  0  0  0  0  0  0  0  0
   -0.2476   -1.1508   -0.7105 H   0  0  0  0  0  0  0  0  0  0  0  0
  1  5  1  0  0  0  0
  2  6  1  0  0  0  0
  2  1  1  0  0  0  0
  2  8  1  0  0  0  0
  3  1  1  0  0  0  0
  4  1  1  0  0  0  0
  6  9  1  0  0  0  0
  6 10  1  0  0  0  0
  7  2  1  0  0  0  0
  9 12  1  0  0  0  0
 11  6  1  0  0  0  0
 13  9  1  0  0  0  0
 14  9  1  0  0  0  0
M  END
$$$$
