butane_opt
 OpenBabel08242015413D

 14 13  0  0  0  0  0  0  0  0999 V2000
   -3.9257    0.2437    0.0847 C   0  0  0  0  0  0  0  0  0  0  0  0
   -2.6968   -0.5938   -0.0176 C   0  0  0  0  0  0  0  0  0  0  0  0
   -4.8292   -0.3948    0.1123 H   0  0  0  0  0  0  0  0  0  0  0  0
   -3.9881    0.9320   -0.8520 H   0  0  0  0  0  0  0  0  0  0  0  0
   -3.8785    0.8664    0.9205 H   0  0  0  0  0  0  0  0  0  0  0  0
   -1.4353    0.1960   -0.0486 C   0  0  0  0  0  0  0  0  0  0  0  0
   -2.8551   -1.3443   -0.9233 H   0  0  0  0  0  0  0  0  0  0  0  0
   -2.6955   -1.1572    0.8261 H   0  0  0  0  0  0  0  0  0  0  0  0
   -0.1556   -0.7028    0.0828 C   0  0  0  0  0  0  0  0  0  0  0  0
   -1.5014    0.8809    0.7540 H   0  0  0  0  0  0  0  0  0  0  0  0
   -1.3479    0.9070   -1.0062 H   0  0  0  0  0  0  0  0  0  0  0  0
   -0.1573   -1.3467    0.9770 H   0  0  0  0  0  0  0  0  0  0  0  0
    0.7488   -0.1198    0.1863 H   0  0  0  0  0  0  0  0  0  0  0  0
    0.0351   -1.4141   -0.7854 H   0  0  0  0  0  0  0  0  0  0  0  0
  1  3  1  0  0  0  0
  1  5  1  0  0  0  0
  2  1  1  0  0  0  0
  2  8  1  0  0  0  0
  4  1  1  0  0  0  0
  6  2  1  0  0  0  0
  6  9  1  0  0  0  0
  6 10  1  0  0  0  0
  7  2  1  0  0  0  0
  9 13  1  0  0  0  0
  9 12  1  0  0  0  0
 11  6  1  0  0  0  0
 14  9  1  0  0  0  0
M  END
$$$$
