14
butane_opt
C  -3.920154   0.249312   0.043317
C  -2.705700  -0.592723   0.007279
H  -4.834762  -0.371734   0.070020
H  -3.845195   0.820471  -0.819730
H  -3.954424   0.893025   0.881757
C  -1.399087   0.199652  -0.002181
H  -2.723263  -1.360402  -0.890420
H  -2.715241  -1.059858   0.800336
C  -0.192132  -0.709530   0.062566
H  -1.450234   0.910037   0.850330
H  -1.399967   0.833432  -0.900043
H   0.011557  -1.502517   1.020129
H   0.691052  -0.167522  -0.203184
H  -0.200026  -1.228624  -0.674782
