14
butane_opt
C  -3.937546   0.247654  -0.008515
C  -2.694837  -0.601138   0.056144
H  -4.847621  -0.347277   0.270039
H  -3.962200   1.014673  -1.012876
H  -3.804219   0.756258   0.761734
C  -1.410739   0.211688   0.033194
H  -2.685479  -1.290417  -0.822715
H  -2.720861  -1.232126   0.928680
C  -0.177344  -0.710663   0.010864
H  -1.368884   0.988425   0.921154
H  -1.406256   0.765112  -0.770344
H  -0.195235  -1.324198   0.889604
H   0.695546  -0.100713   0.065086
H  -0.079851  -1.476968  -0.910962
