butane_opt
 OpenBabel08242015413D

 14 13  0  0  0  0  0  0  0  0999 V2000
   -3.9615    0.2616    0.0244 C   0  0  0  0  0  0  0  0  0  0  0  0
   -2.6909   -0.6374    0.0245 C   0  0  0  0  0  0  0  0  0  0  0  0
   -4.8148   -0.2957   -0.1525 H   0  0  0  0  0  0  0  0  0  0  0  0
   -4.0143    0.7100   -0.7346 H   0  0  0  0  0  0  0  0  0  0  0  0
   -4.0445    1.2031    1.0916 H   0  0  0  0  0  0  0  0  0  0  0  0
   -1.3986    0.1950   -0.0107 C   0  0  0  0  0  0  0  0  0  0  0  0
   -2.7839   -1.2563   -0.7568 H   0  0  0  0  0  0  0  0  0  0  0  0
   -2.7564   -1.2908    0.9130 H   0  0  0  0  0  0  0  0  0  0  0  0
   -0.1467   -0.6925    0.0399 C   0  0  0  0  0  0  0  0  0  0  0  0
   -1.4056    0.7928    0.8037 H   0  0  0  0  0  0  0  0  0  0  0  0
   -1.4086    0.8708   -0.9128 H   0  0  0  0  0  0  0  0  0  0  0  0
   -0.0728   -1.4231    0.9879 H   0  0  0  0  0  0  0  0  0  0  0  0
    0.7565   -0.0795   -0.0103 H   0  0  0  0  0  0  0  0  0  0  0  0
   -0.1126   -1.2125   -0.6929 H   0  0  0  0  0  0  0  0  0  0  0  0
  1  2  1  0  0  0  0
  1  5  1  0  0  0  0
  2  8  1  0  0  0  0
  3  1  1  0  0  0  0
  4  1  1  0  0  0  0
  6  2  1  0  0  0  0
  6  9  1  0  0  0  0
  6 10  1  0  0  0  0
  7  2  1  0  0  0  0
  9 12  1  0  0  0  0
 11  6  1  0  0  0  0
 13  9  1  0  0  0  0
 14  9  1  0  0  0  0
M  END
$$$$
