butane_opt
 OpenBabel08242015413D

 14 13  0  0  0  0  0  0  0  0999 V2000
   -3.9461    0.2393   -0.0031 C   0  0  0  0  0  0  0  0  0  0  0  0
   -2.7040   -0.5844    0.0801 C   0  0  0  0  0  0  0  0  0  0  0  0
   -4.8520   -0.3463    0.0489 H   0  0  0  0  0  0  0  0  0  0  0  0
   -3.9121    0.9811   -1.0203 H   0  0  0  0  0  0  0  0  0  0  0  0
   -3.9228    0.7860    0.8079 H   0  0  0  0  0  0  0  0  0  0  0  0
   -1.4125    0.1949    0.0338 C   0  0  0  0  0  0  0  0  0  0  0  0
   -2.7278   -1.3002   -0.7995 H   0  0  0  0  0  0  0  0  0  0  0  0
   -2.6181   -1.1974    0.9557 H   0  0  0  0  0  0  0  0  0  0  0  0
   -0.1604   -0.7066    0.0075 C   0  0  0  0  0  0  0  0  0  0  0  0
   -1.3877    0.9120    0.8661 H   0  0  0  0  0  0  0  0  0  0  0  0
   -1.4123    0.8385   -0.8716 H   0  0  0  0  0  0  0  0  0  0  0  0
   -0.1498   -1.2410    0.8498 H   0  0  0  0  0  0  0  0  0  0  0  0
    0.7381   -0.1004    0.1271 H   0  0  0  0  0  0  0  0  0  0  0  0
   -0.0972   -1.5299   -0.9759 H   0  0  0  0  0  0  0  0  0  0  0  0
  1  3  1  0  0  0  0
  1  2  1  0  0  0  0
  1  5  1  0  0  0  0
  2  8  1  0  0  0  0
  4  1  1  0  0  0  0
  6  2  1  0  0  0  0
  6 10  1  0  0  0  0
  7  2  1  0  0  0  0
  9  6  1  0  0  0  0
  9 13  1  0  0  0  0
  9 12  1  0  0  0  0
 11  6  1  0  0  0  0
 14  9  1  0  0  0  0
M  END
$$$$
