14
butane_opt
C  -3.942013   0.251974  -0.032957
C  -2.708209  -0.608584   0.071923
H  -4.856591  -0.407947   0.067231
H  -3.960859   0.895373  -0.946924
H  -4.023713   0.855017   0.747980
C  -1.409627   0.230703   0.074331
H  -2.777301  -1.226181  -0.711379
H  -2.775047  -1.277088   0.986069
C  -0.138821  -0.719596  -0.024819
H  -1.355474   0.999102   0.978639
H  -1.466839   0.737790  -0.739233
H  -0.016643  -1.408114   0.938379
H   0.764301  -0.151679  -0.097144
H  -0.162740  -1.343292  -0.841612
