14
butane_opt
C  -3.926432   0.255341   0.078861
C  -2.704204  -0.597633  -0.048008
H  -4.894363  -0.400408   0.253706
H  -4.098205   0.989895  -0.886965
H  -3.745028   0.803132   0.897702
C  -1.398634   0.193405  -0.033422
H  -2.756956  -1.275034  -0.905100
H  -2.688837  -1.159035   0.812885
C  -0.175672  -0.717039   0.079355
H  -1.435170   0.911923   0.806876
H  -1.454427   0.836328  -0.928479
H  -0.239032  -1.368241   1.024729
H   0.811149  -0.049854   0.115971
H  -0.059027  -1.368413  -0.684410
