butane_opt
 OpenBabel08242015413D

 14 13  0  0  0  0  0  0  0  0999 V2000
   -3.9264    0.2553    0.0789 C   0  0  0  0  0  0  0  0  0  0  0  0
   -2.7042   -0.5976   -0.0480 C   0  0  0  0  0  0  0  0  0  0  0  0
   -4.8944   -0.4004    0.2537 H   0  0  0  0  0  0  0  0  0  0  0  0
   -4.0982    0.9899   -0.8870 H   0  0  0  0  0  0  0  0  0  0  0  0
   -3.7450    0.8031    0.8977 H   0  0  0  0  0  0  0  0  0  0  0  0
   -1.3986    0.1934   -0.0334 C   0  0  0  0  0  0  0  0  0  0  0  0
   -2.7570   -1.2750   -0.9051 H   0  0  0  0  0  0  0  0  0  0  0  0
   -2.6888   -1.1590    0.8129 H   0  0  0  0  0  0  0  0  0  0  0  0
   -0.1757   -0.7170    0.0794 C   0  0  0  0  0  0  0  0  0  0  0  0
   -1.4352    0.9119    0.8069 H   0  0  0  0  0  0  0  0  0  0  0  0
   -1.4544    0.8363   -0.9285 H   0  0  0  0  0  0  0  0  0  0  0  0
   -0.2390   -1.3682    1.0247 H   0  0  0  0  0  0  0  0  0  0  0  0
    0.8111   -0.0499    0.1160 H   0  0  0  0  0  0  0  0  0  0  0  0
   -0.0590   -1.3684   -0.6844 H   0  0  0  0  0  0  0  0  0  0  0  0
  1  3  1  0  0  0  0
  1  5  1  0  0  0  0
  2  6  1  0  0  0  0
  2  1  1  0  0  0  0
  2  8  1  0  0  0  0
  4  1  1  0  0  0  0
  6  9  1  0  0  0  0
  6 10  1  0  0  0  0
  7  2  1  0  0  0  0
  9 13  1  0  0  0  0
  9 12  1  0  0  0  0
 11  6  1  0  0  0  0
 14  9  1  0  0  0  0
M  END
$$$$
