14
butane_opt
C  -3.970654   0.253811   0.048206
C  -2.709684  -0.614211   0.006805
H  -4.917241  -0.356203   0.019564
H  -3.924085   0.840731  -0.844537
H  -3.910021   0.977483   0.955633
C  -1.412479   0.204395  -0.002261
H  -2.718431  -1.389164  -0.942201
H  -2.711840  -1.084351   0.784328
C  -0.135115  -0.704886   0.060405
H  -1.294060   0.877328   0.848261
H  -1.412759   0.856460  -0.965163
H   0.005695  -1.557312   1.111183
H   0.762254  -0.138139  -0.132011
H  -0.171540  -1.171787  -0.707656
