butane_opt
 OpenBabel08242015413D

 14 13  0  0  0  0  0  0  0  0999 V2000
   -3.9282    0.2488    0.0680 C   0  0  0  0  0  0  0  0  0  0  0  0
   -2.6974   -0.5963   -0.0402 C   0  0  0  0  0  0  0  0  0  0  0  0
   -4.8917   -0.3717    0.1498 H   0  0  0  0  0  0  0  0  0  0  0  0
   -4.0216    0.8776   -0.7935 H   0  0  0  0  0  0  0  0  0  0  0  0
   -3.7725    0.9175    0.9234 H   0  0  0  0  0  0  0  0  0  0  0  0
   -1.4128    0.1933   -0.0296 C   0  0  0  0  0  0  0  0  0  0  0  0
   -2.7955   -1.2093   -0.8728 H   0  0  0  0  0  0  0  0  0  0  0  0
   -2.7276   -1.1794    0.8172 H   0  0  0  0  0  0  0  0  0  0  0  0
   -0.1554   -0.7160    0.0946 C   0  0  0  0  0  0  0  0  0  0  0  0
   -1.4779    0.9294    0.8065 H   0  0  0  0  0  0  0  0  0  0  0  0
   -1.3615    0.8176   -0.9320 H   0  0  0  0  0  0  0  0  0  0  0  0
   -0.1773   -1.4265    1.0351 H   0  0  0  0  0  0  0  0  0  0  0  0
    0.7713   -0.1095   -0.0653 H   0  0  0  0  0  0  0  0  0  0  0  0
   -0.2310   -1.2899   -0.7375 H   0  0  0  0  0  0  0  0  0  0  0  0
  1  3  1  0  0  0  0
  1  5  1  0  0  0  0
  2  6  1  0  0  0  0
  2  1  1  0  0  0  0
  2  8  1  0  0  0  0
  4  1  1  0  0  0  0
  6  9  1  0  0  0  0
  6 10  1  0  0  0  0
  7  2  1  0  0  0  0
  9 12  1  0  0  0  0
 11  6  1  0  0  0  0
 13  9  1  0  0  0  0
 14  9  1  0  0  0  0
M  END
$$$$
