butane_opt
 OpenBabel08242015413D

 14 13  0  0  0  0  0  0  0  0999 V2000
   -3.9326    0.2442    0.0212 C   0  0  0  0  0  0  0  0  0  0  0  0
   -2.6965   -0.5886    0.0668 C   0  0  0  0  0  0  0  0  0  0  0  0
   -4.8673   -0.3697    0.0800 H   0  0  0  0  0  0  0  0  0  0  0  0
   -3.8501    0.9497   -0.9262 H   0  0  0  0  0  0  0  0  0  0  0  0
   -3.9411    0.8319    0.8441 H   0  0  0  0  0  0  0  0  0  0  0  0
   -1.4239    0.1776   -0.0243 C   0  0  0  0  0  0  0  0  0  0  0  0
   -2.7281   -1.2772   -0.7890 H   0  0  0  0  0  0  0  0  0  0  0  0
   -2.7521   -1.1726    0.9502 H   0  0  0  0  0  0  0  0  0  0  0  0
   -0.1558   -0.6994    0.0330 C   0  0  0  0  0  0  0  0  0  0  0  0
   -1.4584    0.9258    0.8602 H   0  0  0  0  0  0  0  0  0  0  0  0
   -1.4630    0.8707   -0.9066 H   0  0  0  0  0  0  0  0  0  0  0  0
   -0.1872   -1.1611    0.8280 H   0  0  0  0  0  0  0  0  0  0  0  0
    0.7854   -0.1286    0.2876 H   0  0  0  0  0  0  0  0  0  0  0  0
   -0.0593   -1.5608   -0.9654 H   0  0  0  0  0  0  0  0  0  0  0  0
  1  2  1  0  0  0  0
  1  3  1  0  0  0  0
  1  5  1  0  0  0  0
  2  8  1  0  0  0  0
  4  1  1  0  0  0  0
  6  9  1  0  0  0  0
  6  2  1  0  0  0  0
  6 10  1  0  0  0  0
  7  2  1  0  0  0  0
  9 13  1  0  0  0  0
  9 12  1  0  0  0  0
 11  6  1  0  0  0  0
 14  9  1  0  0  0  0
M  END
$$$$
