14
butane_opt
C  -3.928229   0.248766   0.067961
C  -2.697368  -0.596282  -0.040249
H  -4.891725  -0.371732   0.149844
H  -4.021570   0.877593  -0.793533
H  -3.772501   0.917478   0.923431
C  -1.412847   0.193255  -0.029647
H  -2.795464  -1.209307  -0.872808
H  -2.727577  -1.179367   0.817231
C  -0.155449  -0.715962   0.094618
H  -1.477864   0.929422   0.806463
H  -1.361539   0.817587  -0.931993
H  -0.177341  -1.426523   1.035086
H   0.771317  -0.109541  -0.065270
H  -0.230966  -1.289934  -0.737452
