14
butane_opt
C  -3.972065   0.266930  -0.008608
C  -2.687824  -0.624361   0.084316
H  -4.833786  -0.284583   0.037649
H  -3.987213   0.898693  -0.957044
H  -4.018931   0.977223   0.914474
C  -1.395438   0.165428   0.005708
H  -2.756414  -1.276750  -0.757679
H  -2.671180  -1.235250   0.956891
C  -0.150060  -0.678571   0.015823
H  -1.328026   0.815008   0.892354
H  -1.441768   0.794472  -0.883756
H  -0.272453  -1.170654   0.828071
H   0.776436  -0.074053   0.156976
H  -0.029887  -1.460402  -0.930810
