butane_opt
 OpenBabel08242015413D

 14 13  0  0  0  0  0  0  0  0999 V2000
   -3.9252    0.2476   -0.0532 C   0  0  0  0  0  0  0  0  0  0  0  0
   -2.7140   -0.5841    0.1156 C   0  0  0  0  0  0  0  0  0  0  0  0
   -4.8725   -0.4046   -0.1119 H   0  0  0  0  0  0  0  0  0  0  0  0
   -3.8385    0.7477   -0.8781 H   0  0  0  0  0  0  0  0  0  0  0  0
   -4.0125    1.0593    0.9556 H   0  0  0  0  0  0  0  0  0  0  0  0
   -1.4158    0.1857    0.0480 C   0  0  0  0  0  0  0  0  0  0  0  0
   -2.6467   -1.1409   -0.6726 H   0  0  0  0  0  0  0  0  0  0  0  0
   -2.7882   -1.3049    1.0740 H   0  0  0  0  0  0  0  0  0  0  0  0
   -0.1605   -0.7075   -0.0187 C   0  0  0  0  0  0  0  0  0  0  0  0
   -1.4094    0.8551    0.9173 H   0  0  0  0  0  0  0  0  0  0  0  0
   -1.4822    0.7830   -0.8175 H   0  0  0  0  0  0  0  0  0  0  0  0
   -0.0526   -1.2360    0.8050 H   0  0  0  0  0  0  0  0  0  0  0  0
    0.7816   -0.1023   -0.0151 H   0  0  0  0  0  0  0  0  0  0  0  0
   -0.1154   -1.4283   -0.9066 H   0  0  0  0  0  0  0  0  0  0  0  0
  1  2  1  0  0  0  0
  1  5  1  0  0  0  0
  2  8  1  0  0  0  0
  3  1  1  0  0  0  0
  4  1  1  0  0  0  0
  6  2  1  0  0  0  0
  6 10  1  0  0  0  0
  7  2  1  0  0  0  0
  9 13  1  0  0  0  0
  9  6  1  0  0  0  0
  9 12  1  0  0  0  0
 11  6  1  0  0  0  0
 14  9  1  0  0  0  0
M  END
$$$$
