butane_opt
 OpenBabel08242015413D

 14 13  0  0  0  0  0  0  0  0999 V2000
   -3.9303    0.2820    0.0031 C   0  0  0  0  0  0  0  0  0  0  0  0
   -2.6846   -0.6385    0.0785 C   0  0  0  0  0  0  0  0  0  0  0  0
   -4.8359   -0.2854   -0.2039 H   0  0  0  0  0  0  0  0  0  0  0  0
   -3.9362    0.8501   -0.8296 H   0  0  0  0  0  0  0  0  0  0  0  0
   -4.0941    1.0143    0.8971 H   0  0  0  0  0  0  0  0  0  0  0  0
   -1.3981    0.1817    0.0140 C   0  0  0  0  0  0  0  0  0  0  0  0
   -2.7824   -1.3845   -0.7891 H   0  0  0  0  0  0  0  0  0  0  0  0
   -2.7240   -1.2605    0.9561 H   0  0  0  0  0  0  0  0  0  0  0  0
   -0.1802   -0.6837    0.0168 C   0  0  0  0  0  0  0  0  0  0  0  0
   -1.3744    0.8729    0.9074 H   0  0  0  0  0  0  0  0  0  0  0  0
   -1.3523    0.8063   -0.8600 H   0  0  0  0  0  0  0  0  0  0  0  0
   -0.1478   -1.3939    0.9481 H   0  0  0  0  0  0  0  0  0  0  0  0
    0.7934   -0.0354   -0.1016 H   0  0  0  0  0  0  0  0  0  0  0  0
   -0.2570   -1.3444   -0.8377 H   0  0  0  0  0  0  0  0  0  0  0  0
  1  2  1  0  0  0  0
  1  5  1  0  0  0  0
  2  8  1  0  0  0  0
  3  1  1  0  0  0  0
  4  1  1  0  0  0  0
  6  9  1  0  0  0  0
  6  2  1  0  0  0  0
  6 10  1  0  0  0  0
  7  2  1  0  0  0  0
  9 12  1  0  0  0  0
 11  6  1  0  0  0  0
 13  9  1  0  0  0  0
 14  9  1  0  0  0  0
M  END
$$$$
