14
butane_opt
C  -3.955325   0.285462   0.041100
C  -2.712587  -0.634158   0.026709
H  -4.837013  -0.300988  -0.118919
H  -3.968764   0.709715  -0.727386
H  -4.028946   1.201123   1.064587
C  -1.383680   0.170006  -0.024771
H  -2.747821  -1.444997  -0.908845
H  -2.762229  -1.217390   0.886931
C  -0.150596  -0.676320   0.063662
H  -1.467378   0.742948   0.760490
H  -1.361327   0.854801  -1.002181
H  -0.132594  -1.433634   1.051144
H   0.815340  -0.026021  -0.137413
H  -0.128306  -1.270233  -0.679894
