butane_opt
 OpenBabel08242015413D

 14 13  0  0  0  0  0  0  0  0999 V2000
   -3.9154    0.2489    0.0407 C   0  0  0  0  0  0  0  0  0  0  0  0
   -2.6992   -0.5747   -0.0060 C   0  0  0  0  0  0  0  0  0  0  0  0
   -4.8833   -0.3764    0.2795 H   0  0  0  0  0  0  0  0  0  0  0  0
   -4.0367    0.9936   -0.8987 H   0  0  0  0  0  0  0  0  0  0  0  0
   -3.8499    0.7208    0.7588 H   0  0  0  0  0  0  0  0  0  0  0  0
   -1.4152    0.1841    0.0196 C   0  0  0  0  0  0  0  0  0  0  0  0
   -2.8595   -1.3570   -0.9346 H   0  0  0  0  0  0  0  0  0  0  0  0
   -2.6915   -1.1322    0.8279 H   0  0  0  0  0  0  0  0  0  0  0  0
   -0.1619   -0.7144    0.0509 C   0  0  0  0  0  0  0  0  0  0  0  0
   -1.4044    0.9070    0.8467 H   0  0  0  0  0  0  0  0  0  0  0  0
   -1.4073    0.8724   -0.9238 H   0  0  0  0  0  0  0  0  0  0  0  0
   -0.2192   -1.3766    0.9855 H   0  0  0  0  0  0  0  0  0  0  0  0
    0.7590   -0.1090    0.0140 H   0  0  0  0  0  0  0  0  0  0  0  0
   -0.1196   -1.3530   -0.7942 H   0  0  0  0  0  0  0  0  0  0  0  0
  1  3  1  0  0  0  0
  1  5  1  0  0  0  0
  2  6  1  0  0  0  0
  2  1  1  0  0  0  0
  2  8  1  0  0  0  0
  4  1  1  0  0  0  0
  6  9  1  0  0  0  0
  6 10  1  0  0  0  0
  7  2  1  0  0  0  0
  9 12  1  0  0  0  0
 11  6  1  0  0  0  0
 13  9  1  0  0  0  0
 14  9  1  0  0  0  0
M  END
$$$$
