14
butane_opt
C  -3.944547   0.285477   0.048537
C  -2.686913  -0.636882   0.011814
H  -4.872345  -0.285329  -0.148762
H  -3.902431   0.720239  -0.683869
H  -4.057514   1.175062   1.055796
C  -1.401044   0.146248  -0.025380
H  -2.731665  -1.383765  -0.853611
H  -2.654853  -1.260189   0.900354
C  -0.167401  -0.678369   0.072404
H  -1.547527   0.764085   0.763391
H  -1.337848   0.928220  -1.021830
H  -0.165429  -1.309266   1.005899
H   0.835849  -0.012604  -0.113343
H  -0.206018  -1.199210  -0.736510
