14
butane_opt
C  -3.915402   0.248900   0.040700
C  -2.699176  -0.574676  -0.006026
H  -4.883326  -0.376436   0.279537
H  -4.036664   0.993593  -0.898725
H  -3.849915   0.720802   0.758793
C  -1.415157   0.184131   0.019641
H  -2.859506  -1.357023  -0.934571
H  -2.691528  -1.132163   0.827948
C  -0.161899  -0.714389   0.050851
H  -1.404375   0.907038   0.846660
H  -1.407337   0.872367  -0.923805
H  -0.219196  -1.376570   0.985489
H   0.758955  -0.108990   0.014016
H  -0.119643  -1.353003  -0.794224
