butane_opt
 OpenBabel08242015413D

 14 13  0  0  0  0  0  0  0  0999 V2000
   -3.9445    0.2855    0.0485 C   0  0  0  0  0  0  0  0  0  0  0  0
   -2.6869   -0.6369    0.0118 C   0  0  0  0  0  0  0  0  0  0  0  0
   -4.8723   -0.2853   -0.1488 H   0  0  0  0  0  0  0  0  0  0  0  0
   -3.9024    0.7202   -0.6839 H   0  0  0  0  0  0  0  0  0  0  0  0
   -4.0575    1.1751    1.0558 H   0  0  0  0  0  0  0  0  0  0  0  0
   -1.4010    0.1462   -0.0254 C   0  0  0  0  0  0  0  0  0  0  0  0
   -2.7317   -1.3838   -0.8536 H   0  0  0  0  0  0  0  0  0  0  0  0
   -2.6549   -1.2602    0.9004 H   0  0  0  0  0  0  0  0  0  0  0  0
   -0.1674   -0.6784    0.0724 C   0  0  0  0  0  0  0  0  0  0  0  0
   -1.5475    0.7641    0.7634 H   0  0  0  0  0  0  0  0  0  0  0  0
   -1.3378    0.9282   -1.0218 H   0  0  0  0  0  0  0  0  0  0  0  0
   -0.1654   -1.3093    1.0059 H   0  0  0  0  0  0  0  0  0  0  0  0
    0.8358   -0.0126   -0.1133 H   0  0  0  0  0  0  0  0  0  0  0  0
   -0.2060   -1.1992   -0.7365 H   0  0  0  0  0  0  0  0  0  0  0  0
  1  5  1  0  0  0  0
  2  1  1  0  0  0  0
  2  8  1  0  0  0  0
  3  1  1  0  0  0  0
  4  1  1  0  0  0  0
  6  2  1  0  0  0  0
  6  9  1  0  0  0  0
  6 10  1  0  0  0  0
  7  2  1  0  0  0  0
  9 12  1  0  0  0  0
 11  6  1  0  0  0  0
 13  9  1  0  0  0  0
 14  9  1  0  0  0  0
M  END
$$$$
