14
butane_opt
C  -3.963883   0.294164   0.029414
C  -2.688238  -0.635688   0.054452
H  -4.902332  -0.322886  -0.239401
H  -3.874247   0.694149  -0.741821
H  -4.142514   1.084362   0.998817
C  -1.395350   0.145632  -0.004945
H  -2.666281  -1.361744  -0.850021
H  -2.730434  -1.223831   0.948033
C  -0.155077  -0.666087   0.037425
H  -1.337620   0.768475   0.835543
H  -1.397274   0.916973  -0.979423
H  -0.179505  -1.352069   0.965274
H   0.725855  -0.066337  -0.089480
H  -0.095581  -1.274436  -0.780556
