butane_opt
 OpenBabel08242015413D

 14 13  0  0  0  0  0  0  0  0999 V2000
   -3.9485    0.2821    0.0580 C   0  0  0  0  0  0  0  0  0  0  0  0
   -2.7132   -0.6367   -0.0340 C   0  0  0  0  0  0  0  0  0  0  0  0
   -4.8036   -0.2597    0.2641 H   0  0  0  0  0  0  0  0  0  0  0  0
   -4.1300    0.8783   -0.8053 H   0  0  0  0  0  0  0  0  0  0  0  0
   -3.9047    0.9729    0.9500 H   0  0  0  0  0  0  0  0  0  0  0  0
   -1.3872    0.1656   -0.0126 C   0  0  0  0  0  0  0  0  0  0  0  0
   -2.7328   -1.4304   -0.9726 H   0  0  0  0  0  0  0  0  0  0  0  0
   -2.7225   -1.1652    0.7820 H   0  0  0  0  0  0  0  0  0  0  0  0
   -0.1577   -0.6797    0.0810 C   0  0  0  0  0  0  0  0  0  0  0  0
   -1.4512    0.7697    0.7168 H   0  0  0  0  0  0  0  0  0  0  0  0
   -1.3305    0.8627   -0.9450 H   0  0  0  0  0  0  0  0  0  0  0  0
   -0.0936   -1.3772    1.0889 H   0  0  0  0  0  0  0  0  0  0  0  0
    0.7493   -0.0736   -0.0556 H   0  0  0  0  0  0  0  0  0  0  0  0
   -0.1364   -1.2108   -0.6696 H   0  0  0  0  0  0  0  0  0  0  0  0
  1  3  1  0  0  0  0
  1  5  1  0  0  0  0
  2  6  1  0  0  0  0
  2  1  1  0  0  0  0
  2  8  1  0  0  0  0
  4  1  1  0  0  0  0
  6  9  1  0  0  0  0
  6 10  1  0  0  0  0
  7  2  1  0  0  0  0
  9 12  1  0  0  0  0
 11  6  1  0  0  0  0
 13  9  1  0  0  0  0
 14  9  1  0  0  0  0
M  END
$$$$
