butane_opt
 OpenBabel08242015413D

 14 13  0  0  0  0  0  0  0  0999 V2000
   -3.9571    0.2407    0.0162 C   0  0  0  0  0  0  0  0  0  0  0  0
   -2.7213   -0.6042    0.0363 C   0  0  0  0  0  0  0  0  0  0  0  0
   -4.8111   -0.3266    0.0064 H   0  0  0  0  0  0  0  0  0  0  0  0
   -3.9399    0.7762   -0.8788 H   0  0  0  0  0  0  0  0  0  0  0  0
   -3.9708    0.9422    0.9038 H   0  0  0  0  0  0  0  0  0  0  0  0
   -1.4111    0.2299    0.0303 C   0  0  0  0  0  0  0  0  0  0  0  0
   -2.7252   -1.3728   -0.8901 H   0  0  0  0  0  0  0  0  0  0  0  0
   -2.6976   -1.1275    0.8366 H   0  0  0  0  0  0  0  0  0  0  0  0
   -0.1299   -0.7157    0.0321 C   0  0  0  0  0  0  0  0  0  0  0  0
   -1.4368    0.9330    0.8416 H   0  0  0  0  0  0  0  0  0  0  0  0
   -1.3963    0.8328   -0.8339 H   0  0  0  0  0  0  0  0  0  0  0  0
    0.0060   -1.5606    1.0862 H   0  0  0  0  0  0  0  0  0  0  0  0
    0.7599   -0.1467   -0.2744 H   0  0  0  0  0  0  0  0  0  0  0  0
   -0.1744   -1.2258   -0.7137 H   0  0  0  0  0  0  0  0  0  0  0  0
  1  2  1  0  0  0  0
  1  5  1  0  0  0  0
  2  8  1  0  0  0  0
  3  1  1  0  0  0  0
  4  1  1  0  0  0  0
  6  9  1  0  0  0  0
  6  2  1  0  0  0  0
  6 10  1  0  0  0  0
  7  2  1  0  0  0  0
  9 12  1  0  0  0  0
 11  6  1  0  0  0  0
 13  9  1  0  0  0  0
 14  9  1  0  0  0  0
M  END
$$$$
