butane_opt
 OpenBabel08242015413D

 14 13  0  0  0  0  0  0  0  0999 V2000
   -3.9653    0.2817   -0.0322 C   0  0  0  0  0  0  0  0  0  0  0  0
   -2.6928   -0.6452    0.0693 C   0  0  0  0  0  0  0  0  0  0  0  0
   -4.8296   -0.2699    0.0784 H   0  0  0  0  0  0  0  0  0  0  0  0
   -4.0980    0.9750   -0.9734 H   0  0  0  0  0  0  0  0  0  0  0  0
   -3.9575    0.8636    0.7640 H   0  0  0  0  0  0  0  0  0  0  0  0
   -1.3767    0.1636    0.0839 C   0  0  0  0  0  0  0  0  0  0  0  0
   -2.6745   -1.3488   -0.7908 H   0  0  0  0  0  0  0  0  0  0  0  0
   -2.7139   -1.2231    0.9251 H   0  0  0  0  0  0  0  0  0  0  0  0
   -0.1757   -0.6769   -0.0064 C   0  0  0  0  0  0  0  0  0  0  0  0
   -1.3065    0.8767    0.9615 H   0  0  0  0  0  0  0  0  0  0  0  0
   -1.4096    0.8768   -0.7968 H   0  0  0  0  0  0  0  0  0  0  0  0
    0.0189   -1.3072    0.8880 H   0  0  0  0  0  0  0  0  0  0  0  0
    0.6885   -0.0818   -0.1786 H   0  0  0  0  0  0  0  0  0  0  0  0
   -0.2220   -1.3105   -0.8236 H   0  0  0  0  0  0  0  0  0  0  0  0
  1  2  1  0  0  0  0
  1  3  1  0  0  0  0
  1  5  1  0  0  0  0
  2  6  1  0  0  0  0
  2  8  1  0  0  0  0
  4  1  1  0  0  0  0
  6 10  1  0  0  0  0
  7  2  1  0  0  0  0
  9  6  1  0  0  0  0
  9 12  1  0  0  0  0
 11  6  1  0  0  0  0
 13  9  1  0  0  0  0
 14  9  1  0  0  0  0
M  END
$$$$
