butane_opt
 OpenBabel08242015413D

 14 13  0  0  0  0  0  0  0  0999 V2000
   -3.9639    0.2942    0.0294 C   0  0  0  0  0  0  0  0  0  0  0  0
   -2.6882   -0.6357    0.0545 C   0  0  0  0  0  0  0  0  0  0  0  0
   -4.9023   -0.3229   -0.2394 H   0  0  0  0  0  0  0  0  0  0  0  0
   -3.8742    0.6941   -0.7418 H   0  0  0  0  0  0  0  0  0  0  0  0
   -4.1425    1.0844    0.9988 H   0  0  0  0  0  0  0  0  0  0  0  0
   -1.3954    0.1456   -0.0049 C   0  0  0  0  0  0  0  0  0  0  0  0
   -2.6663   -1.3617   -0.8500 H   0  0  0  0  0  0  0  0  0  0  0  0
   -2.7304   -1.2238    0.9480 H   0  0  0  0  0  0  0  0  0  0  0  0
   -0.1551   -0.6661    0.0374 C   0  0  0  0  0  0  0  0  0  0  0  0
   -1.3376    0.7685    0.8355 H   0  0  0  0  0  0  0  0  0  0  0  0
   -1.3973    0.9170   -0.9794 H   0  0  0  0  0  0  0  0  0  0  0  0
   -0.1795   -1.3521    0.9653 H   0  0  0  0  0  0  0  0  0  0  0  0
    0.7259   -0.0663   -0.0895 H   0  0  0  0  0  0  0  0  0  0  0  0
   -0.0956   -1.2744   -0.7806 H   0  0  0  0  0  0  0  0  0  0  0  0
  1  2  1  0  0  0  0
  1  5  1  0  0  0  0
  2  8  1  0  0  0  0
  3  1  1  0  0  0  0
  4  1  1  0  0  0  0
  6  9  1  0  0  0  0
  6  2  1  0  0  0  0
  6 10  1  0  0  0  0
  7  2  1  0  0  0  0
  9 12  1  0  0  0  0
 11  6  1  0  0  0  0
 13  9  1  0  0  0  0
 14  9  1  0  0  0  0
M  END
$$$$
