14
butane_opt
C  -3.913332   0.235353   0.061900
C  -2.711419  -0.594826  -0.028705
H  -4.822825  -0.320322   0.133230
H  -4.020049   0.945446  -0.888953
H  -3.787590   0.905040   0.936519
C  -1.412730   0.205027  -0.027737
H  -2.791559  -1.271699  -0.924513
H  -2.638470  -1.193275   0.841862
C  -0.174552  -0.718514   0.080827
H  -1.421789   0.977674   0.891995
H  -1.415465   0.801044  -0.884881
H  -0.120845  -1.446514   1.078049
H   0.762236  -0.102111  -0.101235
H  -0.213103  -1.292022  -0.681147
