butane_opt
 OpenBabel08242015413D

 14 13  0  0  0  0  0  0  0  0999 V2000
   -3.9641    0.2883    0.0714 C   0  0  0  0  0  0  0  0  0  0  0  0
   -2.7095   -0.6379    0.0058 C   0  0  0  0  0  0  0  0  0  0  0  0
   -4.8599   -0.2456   -0.0424 H   0  0  0  0  0  0  0  0  0  0  0  0
   -3.8759    0.7371   -0.7312 H   0  0  0  0  0  0  0  0  0  0  0  0
   -4.0591    1.1106    1.0466 H   0  0  0  0  0  0  0  0  0  0  0  0
   -1.3793    0.1681   -0.0586 C   0  0  0  0  0  0  0  0  0  0  0  0
   -2.7967   -1.3818   -0.8976 H   0  0  0  0  0  0  0  0  0  0  0  0
   -2.6753   -1.2215    0.8374 H   0  0  0  0  0  0  0  0  0  0  0  0
   -0.1486   -0.6823    0.0811 C   0  0  0  0  0  0  0  0  0  0  0  0
   -1.5008    0.7021    0.6878 H   0  0  0  0  0  0  0  0  0  0  0  0
   -1.3241    0.8549   -1.0024 H   0  0  0  0  0  0  0  0  0  0  0  0
   -0.2264   -1.2981    1.0117 H   0  0  0  0  0  0  0  0  0  0  0  0
    0.8138   -0.0361    0.0908 H   0  0  0  0  0  0  0  0  0  0  0  0
   -0.1191   -1.3113   -0.7366 H   0  0  0  0  0  0  0  0  0  0  0  0
  1  5  1  0  0  0  0
  2  1  1  0  0  0  0
  2  8  1  0  0  0  0
  3  1  1  0  0  0  0
  4  1  1  0  0  0  0
  6  2  1  0  0  0  0
  6  9  1  0  0  0  0
  6 10  1  0  0  0  0
  7  2  1  0  0  0  0
  9 13  1  0  0  0  0
  9 12  1  0  0  0  0
 11  6  1  0  0  0  0
 14  9  1  0  0  0  0
M  END
$$$$
