butane_opt
 OpenBabel08242015413D

 14 13  0  0  0  0  0  0  0  0999 V2000
   -3.9171    0.2428   -0.0051 C   0  0  0  0  0  0  0  0  0  0  0  0
   -2.7092   -0.5857    0.0520 C   0  0  0  0  0  0  0  0  0  0  0  0
   -4.8926   -0.3760   -0.0249 H   0  0  0  0  0  0  0  0  0  0  0  0
   -3.8578    0.8080   -0.8601 H   0  0  0  0  0  0  0  0  0  0  0  0
   -3.9248    0.9382    0.8527 H   0  0  0  0  0  0  0  0  0  0  0  0
   -1.4129    0.2167    0.0432 C   0  0  0  0  0  0  0  0  0  0  0  0
   -2.6429   -1.2849   -0.8159 H   0  0  0  0  0  0  0  0  0  0  0  0
   -2.7464   -1.2487    0.9107 H   0  0  0  0  0  0  0  0  0  0  0  0
   -0.1711   -0.7142    0.0164 C   0  0  0  0  0  0  0  0  0  0  0  0
   -1.3771    0.9478    0.9453 H   0  0  0  0  0  0  0  0  0  0  0  0
   -1.3870    0.8084   -0.8227 H   0  0  0  0  0  0  0  0  0  0  0  0
    0.0222   -1.5209    1.0179 H   0  0  0  0  0  0  0  0  0  0  0  0
    0.6738   -0.1547   -0.2314 H   0  0  0  0  0  0  0  0  0  0  0  0
   -0.3535   -1.3158   -0.7833 H   0  0  0  0  0  0  0  0  0  0  0  0
  1  2  1  0  0  0  0
  1  5  1  0  0  0  0
  2  8  1  0  0  0  0
  3  1  1  0  0  0  0
  4  1  1  0  0  0  0
  6  2  1  0  0  0  0
  6 10  1  0  0  0  0
  7  2  1  0  0  0  0
  9  6  1  0  0  0  0
  9 12  1  0  0  0  0
 11  6  1  0  0  0  0
 13  9  1  0  0  0  0
 14  9  1  0  0  0  0
M  END
$$$$
