butane_opt
 OpenBabel08242015413D

 14 13  0  0  0  0  0  0  0  0999 V2000
   -3.9483    0.2736    0.0266 C   0  0  0  0  0  0  0  0  0  0  0  0
   -2.6958   -0.6261    0.0293 C   0  0  0  0  0  0  0  0  0  0  0  0
   -4.8205   -0.3104    0.0996 H   0  0  0  0  0  0  0  0  0  0  0  0
   -4.0074    0.8963   -0.8662 H   0  0  0  0  0  0  0  0  0  0  0  0
   -3.9282    0.9469    0.9043 H   0  0  0  0  0  0  0  0  0  0  0  0
   -1.4049    0.1691   -0.0106 C   0  0  0  0  0  0  0  0  0  0  0  0
   -2.6643   -1.2908   -0.8073 H   0  0  0  0  0  0  0  0  0  0  0  0
   -2.6712   -1.2885    0.9538 H   0  0  0  0  0  0  0  0  0  0  0  0
   -0.1731   -0.6758    0.0391 C   0  0  0  0  0  0  0  0  0  0  0  0
   -1.4078    0.8169    0.8308 H   0  0  0  0  0  0  0  0  0  0  0  0
   -1.3297    0.8419   -0.9143 H   0  0  0  0  0  0  0  0  0  0  0  0
   -0.2017   -1.2450    0.9059 H   0  0  0  0  0  0  0  0  0  0  0  0
    0.7461   -0.0643    0.1844 H   0  0  0  0  0  0  0  0  0  0  0  0
   -0.0831   -1.4610   -0.8734 H   0  0  0  0  0  0  0  0  0  0  0  0
  1  2  1  0  0  0  0
  1  3  1  0  0  0  0
  1  5  1  0  0  0  0
  2  8  1  0  0  0  0
  4  1  1  0  0  0  0
  6  2  1  0  0  0  0
  6  9  1  0  0  0  0
  6 10  1  0  0  0  0
  7  2  1  0  0  0  0
  9 13  1  0  0  0  0
  9 12  1  0  0  0  0
 11  6  1  0  0  0  0
 14  9  1  0  0  0  0
M  END
$$$$
