14
butane_opt
C  -3.946690   0.241540  -0.016706
C  -2.706754  -0.586614   0.056870
H  -4.880416  -0.385281   0.254147
H  -4.077357   1.147437  -1.125366
H  -3.850464   0.693164   0.662811
C  -1.399038   0.200197   0.084951
H  -2.765704  -1.255659  -0.759013
H  -2.852816  -1.184687   0.917223
C  -0.147434  -0.717932  -0.008793
H  -1.328030   0.879982   0.944023
H  -1.494254   0.826717  -0.790622
H  -0.072579  -1.201950   0.807408
H   0.799631  -0.153938   0.038087
H  -0.097686  -1.477949  -0.938560
