14
butane_opt
C  -3.932642   0.283618   0.083174
C  -2.705019  -0.628669  -0.015087
H  -4.858101  -0.292468   0.118774
H  -4.071257   0.859935  -0.780329
H  -3.848225   1.007339   0.958637
C  -1.401244   0.155148  -0.074040
H  -2.709684  -1.348741  -0.893382
H  -2.623083  -1.251877   0.797330
C  -0.178325  -0.689027   0.098978
H  -1.379139   0.759528   0.729666
H  -1.404483   0.917684  -1.051151
H  -0.313303  -1.186278   0.927432
H   0.829635   0.028032   0.289688
H  -0.054420  -1.408988  -0.769773
