14
butane_opt
C  -3.981395   0.273912   0.045220
C  -2.686837  -0.643464  -0.033372
H  -4.846362  -0.267906   0.331782
H  -4.190200   1.020935  -0.877997
H  -3.812141   0.928049   0.946771
C  -1.381545   0.181286  -0.016820
H  -2.783685  -1.346311  -0.933583
H  -2.666531  -1.281779   0.844929
C  -0.160417  -0.683192   0.075013
H  -1.371571   0.860624   0.860300
H  -1.287987   0.799189  -0.925290
H  -0.147698  -1.348109   1.046889
H   0.735509  -0.080241   0.067363
H  -0.135347  -1.286399  -0.764613
