butane_opt
 OpenBabel08242015413D

 14 13  0  0  0  0  0  0  0  0999 V2000
   -3.9058    0.2518    0.0587 C   0  0  0  0  0  0  0  0  0  0  0  0
   -2.7111   -0.5790    0.0123 C   0  0  0  0  0  0  0  0  0  0  0  0
   -4.8604   -0.4312    0.1131 H   0  0  0  0  0  0  0  0  0  0  0  0
   -3.9505    0.9040   -0.8359 H   0  0  0  0  0  0  0  0  0  0  0  0
   -3.9102    0.8777    0.8996 H   0  0  0  0  0  0  0  0  0  0  0  0
   -1.4262    0.1925   -0.0473 C   0  0  0  0  0  0  0  0  0  0  0  0
   -2.8438   -1.3303   -0.8834 H   0  0  0  0  0  0  0  0  0  0  0  0
   -2.6920   -1.1541    0.8520 H   0  0  0  0  0  0  0  0  0  0  0  0
   -0.1575   -0.7068    0.0729 C   0  0  0  0  0  0  0  0  0  0  0  0
   -1.4906    0.7996    0.7787 H   0  0  0  0  0  0  0  0  0  0  0  0
   -1.3639    0.8265   -0.9229 H   0  0  0  0  0  0  0  0  0  0  0  0
   -0.2505   -1.2935    0.9523 H   0  0  0  0  0  0  0  0  0  0  0  0
    0.7719   -0.1121    0.1580 H   0  0  0  0  0  0  0  0  0  0  0  0
   -0.0243   -1.4634   -0.8532 H   0  0  0  0  0  0  0  0  0  0  0  0
  1  3  1  0  0  0  0
  1  5  1  0  0  0  0
  2  1  1  0  0  0  0
  2  8  1  0  0  0  0
  4  1  1  0  0  0  0
  6  2  1  0  0  0  0
  6  9  1  0  0  0  0
  6 10  1  0  0  0  0
  7  2  1  0  0  0  0
  9 13  1  0  0  0  0
  9 12  1  0  0  0  0
 11  6  1  0  0  0  0
 14  9  1  0  0  0  0
M  END
$$$$
