butane_opt
 OpenBabel08242015413D

 14 13  0  0  0  0  0  0  0  0999 V2000
   -3.9609    0.2620   -0.0515 C   0  0  0  0  0  0  0  0  0  0  0  0
   -2.7156   -0.6159    0.0882 C   0  0  0  0  0  0  0  0  0  0  0  0
   -4.9067   -0.3501    0.0478 H   0  0  0  0  0  0  0  0  0  0  0  0
   -3.9534    0.9183   -0.9759 H   0  0  0  0  0  0  0  0  0  0  0  0
   -3.8952    0.8764    0.8264 H   0  0  0  0  0  0  0  0  0  0  0  0
   -1.3953    0.1997    0.0858 C   0  0  0  0  0  0  0  0  0  0  0  0
   -2.7182   -1.2559   -0.7038 H   0  0  0  0  0  0  0  0  0  0  0  0
   -2.7839   -1.2089    0.9859 H   0  0  0  0  0  0  0  0  0  0  0  0
   -0.1371   -0.7048   -0.0160 C   0  0  0  0  0  0  0  0  0  0  0  0
   -1.3303    0.8769    0.9850 H   0  0  0  0  0  0  0  0  0  0  0  0
   -1.4437    0.8340   -0.8211 H   0  0  0  0  0  0  0  0  0  0  0  0
   -0.0262   -1.3139    0.8665 H   0  0  0  0  0  0  0  0  0  0  0  0
    0.7250   -0.1330   -0.1428 H   0  0  0  0  0  0  0  0  0  0  0  0
   -0.1876   -1.4108   -0.9194 H   0  0  0  0  0  0  0  0  0  0  0  0
  1  3  1  0  0  0  0
  1  2  1  0  0  0  0
  1  5  1  0  0  0  0
  2  8  1  0  0  0  0
  4  1  1  0  0  0  0
  6  2  1  0  0  0  0
  6 10  1  0  0  0  0
  7  2  1  0  0  0  0
  9  6  1  0  0  0  0
  9 12  1  0  0  0  0
 11  6  1  0  0  0  0
 13  9  1  0  0  0  0
 14  9  1  0  0  0  0
M  END
$$$$
