14
butane_opt
C  -3.966534   0.279725  -0.033205
C  -2.680282  -0.642363   0.098489
H  -4.874383  -0.289085  -0.074311
H  -3.996375   0.965845  -1.006451
H  -4.065946   0.895998   0.780497
C  -1.380335   0.168798   0.080504
H  -2.605654  -1.309315  -0.732145
H  -2.763502  -1.294564   0.952567
C  -0.184690  -0.669855  -0.015034
H  -1.367970   0.940546   0.992591
H  -1.379497   0.785251  -0.807786
H   0.059750  -1.330538   0.869621
H   0.778963  -0.080886  -0.197709
H  -0.280533  -1.378070  -0.911502
