butane_opt
 OpenBabel08242015413D

 14 13  0  0  0  0  0  0  0  0999 V2000
   -3.9386    0.2768    0.0731 C   0  0  0  0  0  0  0  0  0  0  0  0
   -2.6803   -0.6435   -0.0321 C   0  0  0  0  0  0  0  0  0  0  0  0
   -4.8001   -0.2389    0.1908 H   0  0  0  0  0  0  0  0  0  0  0  0
   -4.1011    0.9378   -0.8202 H   0  0  0  0  0  0  0  0  0  0  0  0
   -3.9115    0.9026    0.9052 H   0  0  0  0  0  0  0  0  0  0  0  0
   -1.4021    0.1678   -0.0397 C   0  0  0  0  0  0  0  0  0  0  0  0
   -2.6587   -1.3697   -0.9070 H   0  0  0  0  0  0  0  0  0  0  0  0
   -2.6611   -1.2278    0.8353 H   0  0  0  0  0  0  0  0  0  0  0  0
   -0.1913   -0.6855    0.0794 C   0  0  0  0  0  0  0  0  0  0  0  0
   -1.4052    0.8939    0.8924 H   0  0  0  0  0  0  0  0  0  0  0  0
   -1.3752    0.8358   -0.9658 H   0  0  0  0  0  0  0  0  0  0  0  0
   -0.3138   -1.3267    1.0206 H   0  0  0  0  0  0  0  0  0  0  0  0
    0.8011   -0.0259    0.0411 H   0  0  0  0  0  0  0  0  0  0  0  0
   -0.0605   -1.2272   -0.7231 H   0  0  0  0  0  0  0  0  0  0  0  0
  1  3  1  0  0  0  0
  1  5  1  0  0  0  0
  2  1  1  0  0  0  0
  2  8  1  0  0  0  0
  4  1  1  0  0  0  0
  6  2  1  0  0  0  0
  6  9  1  0  0  0  0
  6 10  1  0  0  0  0
  7  2  1  0  0  0  0
  9 12  1  0  0  0  0
 11  6  1  0  0  0  0
 13  9  1  0  0  0  0
 14  9  1  0  0  0  0
M  END
$$$$
