14
butane_opt
C  -3.935344   0.247548  -0.013885
C  -2.691435  -0.587818   0.108581
H  -4.882642  -0.396352   0.019883
H  -3.851183   0.959209  -0.996888
H  -3.931361   0.706017   0.687927
C  -1.428095   0.211975   0.030451
H  -2.670783  -1.252279  -0.748600
H  -2.686191  -1.212331   1.028574
C  -0.161284  -0.709294  -0.011334
H  -1.406631   0.879305   0.917327
H  -1.383965   0.808566  -0.821809
H  -0.213327  -1.117780   0.734534
H   0.733604  -0.159996   0.211373
H  -0.122668  -1.649845  -1.006931
