butane_opt
 OpenBabel08242015413D

 14 13  0  0  0  0  0  0  0  0999 V2000
   -3.9342    0.2478   -0.0267 C   0  0  0  0  0  0  0  0  0  0  0  0
   -2.7119   -0.6023    0.0721 C   0  0  0  0  0  0  0  0  0  0  0  0
   -4.8424   -0.3351    0.0155 H   0  0  0  0  0  0  0  0  0  0  0  0
   -3.9391    0.8950   -0.9565 H   0  0  0  0  0  0  0  0  0  0  0  0
   -3.9886    0.9095    0.8135 H   0  0  0  0  0  0  0  0  0  0  0  0
   -1.4156    0.2108    0.0742 C   0  0  0  0  0  0  0  0  0  0  0  0
   -2.7999   -1.3387   -0.8034 H   0  0  0  0  0  0  0  0  0  0  0  0
   -2.8276   -1.2000    0.9494 H   0  0  0  0  0  0  0  0  0  0  0  0
   -0.1520   -0.7065   -0.0027 C   0  0  0  0  0  0  0  0  0  0  0  0
   -1.4033    0.9309    0.9563 H   0  0  0  0  0  0  0  0  0  0  0  0
   -1.3881    0.8101   -0.8041 H   0  0  0  0  0  0  0  0  0  0  0  0
    0.1536   -1.4912    0.9532 H   0  0  0  0  0  0  0  0  0  0  0  0
    0.7969   -0.1499   -0.2147 H   0  0  0  0  0  0  0  0  0  0  0  0
   -0.2327   -1.2851   -0.8582 H   0  0  0  0  0  0  0  0  0  0  0  0
  1  3  1  0  0  0  0
  1  2  1  0  0  0  0
  1  5  1  0  0  0  0
  2  6  1  0  0  0  0
  2  8  1  0  0  0  0
  4  1  1  0  0  0  0
  6 10  1  0  0  0  0
  7  2  1  0  0  0  0
  9  6  1  0  0  0  0
  9 12  1  0  0  0  0
 11  6  1  0  0  0  0
 13  9  1  0  0  0  0
 14  9  1  0  0  0  0
M  END
$$$$
