butane_opt
 OpenBabel08242015413D

 14 13  0  0  0  0  0  0  0  0999 V2000
   -3.9305    0.2691   -0.0450 C   0  0  0  0  0  0  0  0  0  0  0  0
   -2.7112   -0.6303    0.1042 C   0  0  0  0  0  0  0  0  0  0  0  0
   -4.8828   -0.4032   -0.1495 H   0  0  0  0  0  0  0  0  0  0  0  0
   -3.8421    0.7930   -0.8896 H   0  0  0  0  0  0  0  0  0  0  0  0
   -4.1129    1.0042    0.8774 H   0  0  0  0  0  0  0  0  0  0  0  0
   -1.4058    0.2077    0.0701 C   0  0  0  0  0  0  0  0  0  0  0  0
   -2.6521   -1.1683   -0.6377 H   0  0  0  0  0  0  0  0  0  0  0  0
   -2.8895   -1.2492    1.0639 H   0  0  0  0  0  0  0  0  0  0  0  0
   -0.1521   -0.7071   -0.0263 C   0  0  0  0  0  0  0  0  0  0  0  0
   -1.3604    0.9053    0.9502 H   0  0  0  0  0  0  0  0  0  0  0  0
   -1.4325    0.8159   -0.8104 H   0  0  0  0  0  0  0  0  0  0  0  0
   -0.0046   -1.3321    0.8629 H   0  0  0  0  0  0  0  0  0  0  0  0
    0.7664   -0.1426   -0.1125 H   0  0  0  0  0  0  0  0  0  0  0  0
   -0.2120   -1.3815   -0.9336 H   0  0  0  0  0  0  0  0  0  0  0  0
  1  2  1  0  0  0  0
  1  5  1  0  0  0  0
  2  8  1  0  0  0  0
  3  1  1  0  0  0  0
  4  1  1  0  0  0  0
  6  2  1  0  0  0  0
  6 10  1  0  0  0  0
  7  2  1  0  0  0  0
  9  6  1  0  0  0  0
  9 12  1  0  0  0  0
 11  6  1  0  0  0  0
 13  9  1  0  0  0  0
 14  9  1  0  0  0  0
M  END
$$$$
