14
butane_opt
C  -3.934238   0.247780  -0.026715
C  -2.711948  -0.602308   0.072112
H  -4.842424  -0.335074   0.015483
H  -3.939087   0.894981  -0.956547
H  -3.988604   0.909515   0.813463
C  -1.415554   0.210765   0.074216
H  -2.799903  -1.338744  -0.803424
H  -2.827609  -1.200013   0.949398
C  -0.152047  -0.706528  -0.002682
H  -1.403255   0.930898   0.956289
H  -1.388086   0.810073  -0.804149
H   0.153635  -1.491166   0.953152
H   0.796851  -0.149911  -0.214709
H  -0.232709  -1.285072  -0.858189
