butane_opt
 OpenBabel08242015413D

 14 13  0  0  0  0  0  0  0  0999 V2000
   -3.9353    0.2475   -0.0139 C   0  0  0  0  0  0  0  0  0  0  0  0
   -2.6914   -0.5878    0.1086 C   0  0  0  0  0  0  0  0  0  0  0  0
   -4.8826   -0.3964    0.0199 H   0  0  0  0  0  0  0  0  0  0  0  0
   -3.8512    0.9592   -0.9969 H   0  0  0  0  0  0  0  0  0  0  0  0
   -3.9314    0.7060    0.6879 H   0  0  0  0  0  0  0  0  0  0  0  0
   -1.4281    0.2120    0.0305 C   0  0  0  0  0  0  0  0  0  0  0  0
   -2.6708   -1.2523   -0.7486 H   0  0  0  0  0  0  0  0  0  0  0  0
   -2.6862   -1.2123    1.0286 H   0  0  0  0  0  0  0  0  0  0  0  0
   -0.1613   -0.7093   -0.0113 C   0  0  0  0  0  0  0  0  0  0  0  0
   -1.4066    0.8793    0.9173 H   0  0  0  0  0  0  0  0  0  0  0  0
   -1.3840    0.8086   -0.8218 H   0  0  0  0  0  0  0  0  0  0  0  0
   -0.2133   -1.1178    0.7345 H   0  0  0  0  0  0  0  0  0  0  0  0
    0.7336   -0.1600    0.2114 H   0  0  0  0  0  0  0  0  0  0  0  0
   -0.1227   -1.6498   -1.0069 H   0  0  0  0  0  0  0  0  0  0  0  0
  1  3  1  0  0  0  0
  1  2  1  0  0  0  0
  1  5  1  0  0  0  0
  2  8  1  0  0  0  0
  4  1  1  0  0  0  0
  6  2  1  0  0  0  0
  6 10  1  0  0  0  0
  7  2  1  0  0  0  0
  9  6  1  0  0  0  0
  9 13  1  0  0  0  0
  9 12  1  0  0  0  0
 11  6  1  0  0  0  0
 14  9  1  0  0  0  0
M  END
$$$$
