14
butane_opt
C  -3.917761   0.265776  -0.014702
C  -2.700654  -0.610442   0.076519
H  -4.862845  -0.319951   0.191905
H  -3.988046   1.066815  -1.022432
H  -3.970021   0.716179   0.657960
C  -1.393450   0.195334   0.056412
H  -2.654705  -1.369060  -0.797052
H  -2.802751  -1.235000   0.953865
C  -0.172917  -0.702384  -0.015324
H  -1.373024   0.879707   0.955790
H  -1.503345   0.782032  -0.774565
H  -0.180501  -1.229611   0.816538
H   0.740518  -0.085664   0.110668
H  -0.204666  -1.451465  -0.902587
