14
butane_opt
C  -3.938609   0.276791   0.073143
C  -2.680291  -0.643542  -0.032053
H  -4.800112  -0.238922   0.190795
H  -4.101109   0.937760  -0.820203
H  -3.911455   0.902642   0.905192
C  -1.402098   0.167786  -0.039735
H  -2.658683  -1.369652  -0.907035
H  -2.661094  -1.227787   0.835304
C  -0.191350  -0.685501   0.079408
H  -1.405162   0.893854   0.892390
H  -1.375186   0.835800  -0.965822
H  -0.313782  -1.326730   1.020607
H   0.801082  -0.025908   0.041109
H  -0.060529  -1.227225  -0.723131
