butane_opt
 OpenBabel08242015413D

 14 13  0  0  0  0  0  0  0  0999 V2000
   -3.9339    0.2435    0.0453 C   0  0  0  0  0  0  0  0  0  0  0  0
   -2.7068   -0.6019   -0.0048 C   0  0  0  0  0  0  0  0  0  0  0  0
   -4.8846   -0.4118   -0.0505 H   0  0  0  0  0  0  0  0  0  0  0  0
   -4.0391    0.8009   -0.8214 H   0  0  0  0  0  0  0  0  0  0  0  0
   -3.9603    1.0207    0.9948 H   0  0  0  0  0  0  0  0  0  0  0  0
   -1.4255    0.2141   -0.0105 C   0  0  0  0  0  0  0  0  0  0  0  0
   -2.7815   -1.2442   -0.8034 H   0  0  0  0  0  0  0  0  0  0  0  0
   -2.8136   -1.2233    0.8878 H   0  0  0  0  0  0  0  0  0  0  0  0
   -0.1262   -0.7107    0.0688 C   0  0  0  0  0  0  0  0  0  0  0  0
   -1.4670    0.9225    0.8485 H   0  0  0  0  0  0  0  0  0  0  0  0
   -1.3907    0.7865   -0.8929 H   0  0  0  0  0  0  0  0  0  0  0  0
    0.0286   -1.4702    1.0345 H   0  0  0  0  0  0  0  0  0  0  0  0
    0.7504   -0.1762   -0.1820 H   0  0  0  0  0  0  0  0  0  0  0  0
   -0.1463   -1.2202   -0.7425 H   0  0  0  0  0  0  0  0  0  0  0  0
  1  5  1  0  0  0  0
  2  1  1  0  0  0  0
  2  8  1  0  0  0  0
  3  1  1  0  0  0  0
  4  1  1  0  0  0  0
  6  2  1  0  0  0  0
  6  9  1  0  0  0  0
  6 10  1  0  0  0  0
  7  2  1  0  0  0  0
  9 12  1  0  0  0  0
 11  6  1  0  0  0  0
 13  9  1  0  0  0  0
 14  9  1  0  0  0  0
M  END
$$$$
