butane_opt
 OpenBabel08242015413D

 14 13  0  0  0  0  0  0  0  0999 V2000
   -3.9419    0.2571   -0.0065 C   0  0  0  0  0  0  0  0  0  0  0  0
   -2.6900   -0.5933    0.0873 C   0  0  0  0  0  0  0  0  0  0  0  0
   -4.8554   -0.3879   -0.2053 H   0  0  0  0  0  0  0  0  0  0  0  0
   -3.8826    0.7708   -0.8573 H   0  0  0  0  0  0  0  0  0  0  0  0
   -4.1305    1.0198    0.8979 H   0  0  0  0  0  0  0  0  0  0  0  0
   -1.4143    0.1881    0.0374 C   0  0  0  0  0  0  0  0  0  0  0  0
   -2.6829   -1.2657   -0.7414 H   0  0  0  0  0  0  0  0  0  0  0  0
   -2.7361   -1.2970    0.9978 H   0  0  0  0  0  0  0  0  0  0  0  0
   -0.1547   -0.6977    0.0023 C   0  0  0  0  0  0  0  0  0  0  0  0
   -1.4485    0.7738    0.8318 H   0  0  0  0  0  0  0  0  0  0  0  0
   -1.3501    0.8348   -0.8488 H   0  0  0  0  0  0  0  0  0  0  0  0
   -0.0585   -1.3183    0.8423 H   0  0  0  0  0  0  0  0  0  0  0  0
    0.7757   -0.0739   -0.0208 H   0  0  0  0  0  0  0  0  0  0  0  0
   -0.2323   -1.3746   -0.8944 H   0  0  0  0  0  0  0  0  0  0  0  0
  1  2  1  0  0  0  0
  1  5  1  0  0  0  0
  2  8  1  0  0  0  0
  3  1  1  0  0  0  0
  4  1  1  0  0  0  0
  6  2  1  0  0  0  0
  6 10  1  0  0  0  0
  7  2  1  0  0  0  0
  9  6  1  0  0  0  0
  9 12  1  0  0  0  0
 11  6  1  0  0  0  0
 13  9  1  0  0  0  0
 14  9  1  0  0  0  0
M  END
$$$$
