butane_opt
 OpenBabel08242015413D

 14 13  0  0  0  0  0  0  0  0999 V2000
   -3.9579    0.2890   -0.0131 C   0  0  0  0  0  0  0  0  0  0  0  0
   -2.6614   -0.6302    0.0548 C   0  0  0  0  0  0  0  0  0  0  0  0
   -4.8660   -0.3030    0.2450 H   0  0  0  0  0  0  0  0  0  0  0  0
   -3.9676    1.0429   -1.0116 H   0  0  0  0  0  0  0  0  0  0  0  0
   -3.9080    0.7692    0.7286 H   0  0  0  0  0  0  0  0  0  0  0  0
   -1.4011    0.1594    0.0397 C   0  0  0  0  0  0  0  0  0  0  0  0
   -2.7343   -1.3098   -0.8194 H   0  0  0  0  0  0  0  0  0  0  0  0
   -2.6378   -1.3644    1.0223 H   0  0  0  0  0  0  0  0  0  0  0  0
   -0.1877   -0.6756    0.0132 C   0  0  0  0  0  0  0  0  0  0  0  0
   -1.3578    0.9353    0.9631 H   0  0  0  0  0  0  0  0  0  0  0  0
   -1.3951    0.6661   -0.8046 H   0  0  0  0  0  0  0  0  0  0  0  0
   -0.2140   -1.1436    0.8438 H   0  0  0  0  0  0  0  0  0  0  0  0
    0.7348   -0.0544    0.0584 H   0  0  0  0  0  0  0  0  0  0  0  0
   -0.1912   -1.4080   -0.9507 H   0  0  0  0  0  0  0  0  0  0  0  0
  1  2  1  0  0  0  0
  1  3  1  0  0  0  0
  1  5  1  0  0  0  0
  2  8  1  0  0  0  0
  4  1  1  0  0  0  0
  6  2  1  0  0  0  0
  6 10  1  0  0  0  0
  7  2  1  0  0  0  0
  9  6  1  0  0  0  0
  9 13  1  0  0  0  0
  9 12  1  0  0  0  0
 11  6  1  0  0  0  0
 14  9  1  0  0  0  0
M  END
$$$$
