14
butane_opt
C  -3.957901   0.288972  -0.013079
C  -2.661428  -0.630173   0.054764
H  -4.866002  -0.303046   0.245048
H  -3.967634   1.042850  -1.011599
H  -3.908008   0.769160   0.728641
C  -1.401083   0.159414   0.039677
H  -2.734259  -1.309839  -0.819357
H  -2.637835  -1.364372   1.022304
C  -0.187675  -0.675639   0.013150
H  -1.357821   0.935324   0.963139
H  -1.395139   0.666107  -0.804644
H  -0.213983  -1.143628   0.843831
H   0.734822  -0.054400   0.058390
H  -0.191176  -1.408014  -0.950685
