14
butane_opt
C  -3.943864   0.289098   0.022306
C  -2.665437  -0.648725   0.039718
H  -4.857983  -0.345526   0.063793
H  -4.030695   0.825803  -0.819256
H  -3.978743   0.979965   0.863429
C  -1.404249   0.177359  -0.020081
H  -2.687494  -1.267467  -0.759796
H  -2.690623  -1.294229   0.975478
C  -0.190900  -0.673596   0.048631
H  -1.336560   0.826629   0.790299
H  -1.390136   0.849521  -0.904767
H  -0.275038  -1.177473   0.880054
H   0.764682  -0.066068   0.171872
H  -0.088655  -1.541442  -0.918902
