butane_opt
 OpenBabel08242015413D

 14 13  0  0  0  0  0  0  0  0999 V2000
   -3.9372    0.2537   -0.0416 C   0  0  0  0  0  0  0  0  0  0  0  0
   -2.7108   -0.6010    0.1064 C   0  0  0  0  0  0  0  0  0  0  0  0
   -4.8545   -0.3680   -0.1243 H   0  0  0  0  0  0  0  0  0  0  0  0
   -3.9546    0.8396   -0.9127 H   0  0  0  0  0  0  0  0  0  0  0  0
   -4.0283    0.8785    0.7437 H   0  0  0  0  0  0  0  0  0  0  0  0
   -1.4031    0.2088    0.0839 C   0  0  0  0  0  0  0  0  0  0  0  0
   -2.6764   -1.3115   -0.7344 H   0  0  0  0  0  0  0  0  0  0  0  0
   -2.9217   -1.2143    1.0329 H   0  0  0  0  0  0  0  0  0  0  0  0
   -0.1463   -0.7124   -0.0284 C   0  0  0  0  0  0  0  0  0  0  0  0
   -1.2981    0.9543    0.9620 H   0  0  0  0  0  0  0  0  0  0  0  0
   -1.4388    0.8647   -0.7888 H   0  0  0  0  0  0  0  0  0  0  0  0
    0.0678   -1.3787    0.9014 H   0  0  0  0  0  0  0  0  0  0  0  0
    0.6721   -0.1677   -0.1836 H   0  0  0  0  0  0  0  0  0  0  0  0
   -0.2129   -1.3783   -0.8931 H   0  0  0  0  0  0  0  0  0  0  0  0
  1  2  1  0  0  0  0
  1  5  1  0  0  0  0
  2  8  1  0  0  0  0
  3  1  1  0  0  0  0
  4  1  1  0  0  0  0
  6  2  1  0  0  0  0
  6 10  1  0  0  0  0
  7  2  1  0  0  0  0
  9  6  1  0  0  0  0
  9 12  1  0  0  0  0
 11  6  1  0  0  0  0
 13  9  1  0  0  0  0
 14  9  1  0  0  0  0
M  END
$$$$
