14
butane_opt
C  -3.937168   0.253732  -0.041604
C  -2.710783  -0.601029   0.106439
H  -4.854544  -0.368014  -0.124265
H  -3.954569   0.839626  -0.912696
H  -4.028339   0.878492   0.743653
C  -1.403114   0.208799   0.083892
H  -2.676389  -1.311461  -0.734407
H  -2.921725  -1.214253   1.032930
C  -0.146281  -0.712443  -0.028433
H  -1.298051   0.954334   0.961988
H  -1.438789   0.864722  -0.788763
H   0.067787  -1.378740   0.901391
H   0.672132  -0.167713  -0.183579
H  -0.212882  -1.378261  -0.893149
