14
butane_opt
C  -3.934128   0.274974   0.048130
C  -2.697160  -0.625934  -0.005011
H  -4.835268  -0.298439   0.167118
H  -4.025951   0.920660  -0.876231
H  -3.926948   0.936190   0.919717
C  -1.397042   0.174724  -0.023385
H  -2.758863  -1.352217  -0.890064
H  -2.687662  -1.251637   0.864502
C  -0.177012  -0.682033   0.066986
H  -1.437299   0.858427   0.852502
H  -1.380217   0.772493  -0.885241
H  -0.160062  -1.350814   1.005215
H   0.768225  -0.068507  -0.000563
H  -0.127468  -1.320331  -0.757139
