butane_opt
 OpenBabel08242015413D

 14 13  0  0  0  0  0  0  0  0999 V2000
   -3.9627    0.2738    0.0515 C   0  0  0  0  0  0  0  0  0  0  0  0
   -2.7174   -0.6328    0.0176 C   0  0  0  0  0  0  0  0  0  0  0  0
   -4.8552   -0.2500    0.1143 H   0  0  0  0  0  0  0  0  0  0  0  0
   -4.0689    0.9000   -0.8577 H   0  0  0  0  0  0  0  0  0  0  0  0
   -3.9356    1.0326    0.9548 H   0  0  0  0  0  0  0  0  0  0  0  0
   -1.3803    0.1549   -0.0563 C   0  0  0  0  0  0  0  0  0  0  0  0
   -2.7782   -1.2958   -0.8514 H   0  0  0  0  0  0  0  0  0  0  0  0
   -2.7096   -1.2575    0.9197 H   0  0  0  0  0  0  0  0  0  0  0  0
   -0.1439   -0.6758    0.0677 C   0  0  0  0  0  0  0  0  0  0  0  0
   -1.4424    0.8637    0.8500 H   0  0  0  0  0  0  0  0  0  0  0  0
   -1.3503    0.8217   -0.9703 H   0  0  0  0  0  0  0  0  0  0  0  0
   -0.2912   -1.2317    0.9294 H   0  0  0  0  0  0  0  0  0  0  0  0
    0.7955   -0.0490    0.2192 H   0  0  0  0  0  0  0  0  0  0  0  0
    0.0473   -1.4437   -0.8478 H   0  0  0  0  0  0  0  0  0  0  0  0
  1  3  1  0  0  0  0
  1  5  1  0  0  0  0
  2  1  1  0  0  0  0
  2  8  1  0  0  0  0
  4  1  1  0  0  0  0
  6  2  1  0  0  0  0
  6  9  1  0  0  0  0
  6 10  1  0  0  0  0
  7  2  1  0  0  0  0
  9 13  1  0  0  0  0
  9 12  1  0  0  0  0
 11  6  1  0  0  0  0
 14  9  1  0  0  0  0
M  END
$$$$
