14
butane_opt
C  -3.933766   0.256100  -0.033402
C  -2.714625  -0.599221   0.099203
H  -4.959355  -0.419528  -0.167877
H  -3.791859   0.830091  -0.883317
H  -3.997602   1.016877   0.904123
C  -1.407877   0.198449   0.041190
H  -2.654343  -1.145932  -0.643006
H  -2.758511  -1.334368   1.080926
C  -0.162280  -0.713433  -0.009846
H  -1.334254   0.890309   0.882969
H  -1.434471   0.777386  -0.796735
H   0.003018  -1.239752   0.783138
H   0.735237  -0.100036   0.029282
H  -0.199528  -1.466204  -0.909836
