butane_opt
 OpenBabel08242015413D

 14 13  0  0  0  0  0  0  0  0999 V2000
   -3.9625    0.2703   -0.0136 C   0  0  0  0  0  0  0  0  0  0  0  0
   -2.7008   -0.6348    0.0561 C   0  0  0  0  0  0  0  0  0  0  0  0
   -4.8189   -0.2712   -0.0037 H   0  0  0  0  0  0  0  0  0  0  0  0
   -4.0844    0.9230   -0.9265 H   0  0  0  0  0  0  0  0  0  0  0  0
   -4.0961    0.9392    0.8191 H   0  0  0  0  0  0  0  0  0  0  0  0
   -1.3916    0.1749    0.0502 C   0  0  0  0  0  0  0  0  0  0  0  0
   -2.6403   -1.3093   -0.7433 H   0  0  0  0  0  0  0  0  0  0  0  0
   -2.7461   -1.2162    0.9509 H   0  0  0  0  0  0  0  0  0  0  0  0
   -0.1445   -0.6826   -0.0001 C   0  0  0  0  0  0  0  0  0  0  0  0
   -1.3177    0.9624    0.9752 H   0  0  0  0  0  0  0  0  0  0  0  0
   -1.4272    0.6735   -0.7166 H   0  0  0  0  0  0  0  0  0  0  0  0
   -0.0684   -1.4563    1.0086 H   0  0  0  0  0  0  0  0  0  0  0  0
    0.7871   -0.0013   -0.2627 H   0  0  0  0  0  0  0  0  0  0  0  0
   -0.2159   -1.2404   -0.7675 H   0  0  0  0  0  0  0  0  0  0  0  0
  1  3  1  0  0  0  0
  1  2  1  0  0  0  0
  1  5  1  0  0  0  0
  2  8  1  0  0  0  0
  4  1  1  0  0  0  0
  6  2  1  0  0  0  0
  6 10  1  0  0  0  0
  7  2  1  0  0  0  0
  9  6  1  0  0  0  0
  9 12  1  0  0  0  0
 11  6  1  0  0  0  0
 13  9  1  0  0  0  0
 14  9  1  0  0  0  0
M  END
$$$$
