14
butane_opt
C  -3.962546   0.270265  -0.013558
C  -2.700797  -0.634833   0.056067
H  -4.818907  -0.271237  -0.003737
H  -4.084387   0.922961  -0.926517
H  -4.096135   0.939232   0.819097
C  -1.391608   0.174884   0.050206
H  -2.640296  -1.309294  -0.743285
H  -2.746059  -1.216172   0.950869
C  -0.144544  -0.682594  -0.000065
H  -1.317711   0.962416   0.975223
H  -1.427173   0.673494  -0.716604
H  -0.068422  -1.456270   1.008555
H   0.787067  -0.001322  -0.262746
H  -0.215936  -1.240415  -0.767501
