butane_opt
 OpenBabel08242015413D

 14 13  0  0  0  0  0  0  0  0999 V2000
   -3.9291    0.2660   -0.0273 C   0  0  0  0  0  0  0  0  0  0  0  0
   -2.7097   -0.6174    0.0683 C   0  0  0  0  0  0  0  0  0  0  0  0
   -4.8178   -0.3383    0.2887 H   0  0  0  0  0  0  0  0  0  0  0  0
   -4.0388    1.1890   -1.1114 H   0  0  0  0  0  0  0  0  0  0  0  0
   -3.9079    0.7218    0.7000 H   0  0  0  0  0  0  0  0  0  0  0  0
   -1.3976    0.1787    0.0741 C   0  0  0  0  0  0  0  0  0  0  0  0
   -2.6794   -1.2861   -0.7656 H   0  0  0  0  0  0  0  0  0  0  0  0
   -2.7683   -1.3034    0.9733 H   0  0  0  0  0  0  0  0  0  0  0  0
   -0.1808   -0.6970   -0.0203 C   0  0  0  0  0  0  0  0  0  0  0  0
   -1.3804    0.9729    1.0066 H   0  0  0  0  0  0  0  0  0  0  0  0
   -1.3908    0.7352   -0.7463 H   0  0  0  0  0  0  0  0  0  0  0  0
   -0.1710   -1.1857    0.8025 H   0  0  0  0  0  0  0  0  0  0  0  0
    0.7761   -0.0845    0.0505 H   0  0  0  0  0  0  0  0  0  0  0  0
   -0.0459   -1.4403   -0.9397 H   0  0  0  0  0  0  0  0  0  0  0  0
  1  2  1  0  0  0  0
  1  3  1  0  0  0  0
  1  5  1  0  0  0  0
  2  6  1  0  0  0  0
  2  8  1  0  0  0  0
  4  1  1  0  0  0  0
  6 10  1  0  0  0  0
  7  2  1  0  0  0  0
  9 13  1  0  0  0  0
  9  6  1  0  0  0  0
  9 12  1  0  0  0  0
 11  6  1  0  0  0  0
 14  9  1  0  0  0  0
M  END
$$$$
