14
butane_opt
C  -3.929072   0.265977  -0.027265
C  -2.709684  -0.617445   0.068334
H  -4.817812  -0.338263   0.288672
H  -4.038772   1.189008  -1.111369
H  -3.907882   0.721761   0.699999
C  -1.397608   0.178696   0.074138
H  -2.679424  -1.286097  -0.765638
H  -2.768329  -1.303436   0.973293
C  -0.180790  -0.696954  -0.020325
H  -1.380423   0.972944   1.006599
H  -1.390767   0.735184  -0.746302
H  -0.171010  -1.185653   0.802482
H   0.776075  -0.084465   0.050535
H  -0.045893  -1.440294  -0.939687
