butane_opt
 OpenBabel08242015413D

 14 13  0  0  0  0  0  0  0  0999 V2000
   -3.9450    0.2695    0.0432 C   0  0  0  0  0  0  0  0  0  0  0  0
   -2.6816   -0.6151    0.0147 C   0  0  0  0  0  0  0  0  0  0  0  0
   -4.8637   -0.3410    0.0035 H   0  0  0  0  0  0  0  0  0  0  0  0
   -3.9852    0.8702   -0.8625 H   0  0  0  0  0  0  0  0  0  0  0  0
   -4.0042    0.9348    0.9141 H   0  0  0  0  0  0  0  0  0  0  0  0
   -1.4053    0.1792   -0.0043 C   0  0  0  0  0  0  0  0  0  0  0  0
   -2.7558   -1.3757   -0.8860 H   0  0  0  0  0  0  0  0  0  0  0  0
   -2.6634   -1.2065    0.8524 H   0  0  0  0  0  0  0  0  0  0  0  0
   -0.1727   -0.6856    0.0576 C   0  0  0  0  0  0  0  0  0  0  0  0
   -1.3619    0.8295    0.8435 H   0  0  0  0  0  0  0  0  0  0  0  0
   -1.3803    0.8160   -0.8989 H   0  0  0  0  0  0  0  0  0  0  0  0
   -0.1080   -1.4011    1.0036 H   0  0  0  0  0  0  0  0  0  0  0  0
    0.7339   -0.0995   -0.0890 H   0  0  0  0  0  0  0  0  0  0  0  0
   -0.1782   -1.2667   -0.7675 H   0  0  0  0  0  0  0  0  0  0  0  0
  1  5  1  0  0  0  0
  2  1  1  0  0  0  0
  2  8  1  0  0  0  0
  3  1  1  0  0  0  0
  4  1  1  0  0  0  0
  6  2  1  0  0  0  0
  6  9  1  0  0  0  0
  6 10  1  0  0  0  0
  7  2  1  0  0  0  0
  9 12  1  0  0  0  0
 11  6  1  0  0  0  0
 13  9  1  0  0  0  0
 14  9  1  0  0  0  0
M  END
$$$$
