butane_opt
 OpenBabel08242015413D

 14 13  0  0  0  0  0  0  0  0999 V2000
   -3.9291    0.2715   -0.0262 C   0  0  0  0  0  0  0  0  0  0  0  0
   -2.6900   -0.6105    0.0596 C   0  0  0  0  0  0  0  0  0  0  0  0
   -4.8460   -0.3269    0.2137 H   0  0  0  0  0  0  0  0  0  0  0  0
   -4.0151    1.0191   -0.9964 H   0  0  0  0  0  0  0  0  0  0  0  0
   -3.9489    0.8044    0.7383 H   0  0  0  0  0  0  0  0  0  0  0  0
   -1.4236    0.1595    0.0626 C   0  0  0  0  0  0  0  0  0  0  0  0
   -2.6557   -1.2054   -0.7080 H   0  0  0  0  0  0  0  0  0  0  0  0
   -2.7291   -1.3325    1.0270 H   0  0  0  0  0  0  0  0  0  0  0  0
   -0.1643   -0.6818   -0.0049 C   0  0  0  0  0  0  0  0  0  0  0  0
   -1.3336    0.8501    0.9509 H   0  0  0  0  0  0  0  0  0  0  0  0
   -1.4313    0.6946   -0.8207 H   0  0  0  0  0  0  0  0  0  0  0  0
   -0.1786   -1.1295    0.7333 H   0  0  0  0  0  0  0  0  0  0  0  0
    0.7618   -0.0636    0.0993 H   0  0  0  0  0  0  0  0  0  0  0  0
   -0.1638   -1.4329   -0.9099 H   0  0  0  0  0  0  0  0  0  0  0  0
  1  2  1  0  0  0  0
  1  3  1  0  0  0  0
  1  5  1  0  0  0  0
  2  6  1  0  0  0  0
  2  8  1  0  0  0  0
  4  1  1  0  0  0  0
  6 10  1  0  0  0  0
  7  2  1  0  0  0  0
  9  6  1  0  0  0  0
  9 13  1  0  0  0  0
  9 12  1  0  0  0  0
 11  6  1  0  0  0  0
 14  9  1  0  0  0  0
M  END
$$$$
