14
butane_opt
C  -3.938763   0.264170  -0.000194
C  -2.694642  -0.622909   0.062171
H  -4.808884  -0.319920  -0.080982
H  -3.947845   0.847177  -0.864899
H  -3.969452   1.027655   0.923195
C  -1.410524   0.179544   0.026658
H  -2.709071  -1.295268  -0.799225
H  -2.713906  -1.235582   0.927166
C  -0.166189  -0.685528   0.020553
H  -1.394917   0.805704   0.860812
H  -1.430596   0.818189  -0.881216
H  -0.076770  -1.321048   0.940005
H   0.748377  -0.088634  -0.071780
H  -0.206837  -1.324043  -0.815618
