butane_opt
 OpenBabel08242015413D

 14 13  0  0  0  0  0  0  0  0999 V2000
   -3.9382    0.2818   -0.0529 C   0  0  0  0  0  0  0  0  0  0  0  0
   -2.6741   -0.6472    0.1148 C   0  0  0  0  0  0  0  0  0  0  0  0
   -4.8076   -0.2600   -0.1397 H   0  0  0  0  0  0  0  0  0  0  0  0
   -3.8436    0.8048   -0.8652 H   0  0  0  0  0  0  0  0  0  0  0  0
   -4.1345    1.0425    0.8117 H   0  0  0  0  0  0  0  0  0  0  0  0
   -1.4054    0.1585    0.0881 C   0  0  0  0  0  0  0  0  0  0  0  0
   -2.6623   -1.2342   -0.6703 H   0  0  0  0  0  0  0  0  0  0  0  0
   -2.7438   -1.2824    1.0181 H   0  0  0  0  0  0  0  0  0  0  0  0
   -0.1804   -0.6796   -0.0293 C   0  0  0  0  0  0  0  0  0  0  0  0
   -1.3422    0.8134    0.9147 H   0  0  0  0  0  0  0  0  0  0  0  0
   -1.4305    0.8967   -0.8314 H   0  0  0  0  0  0  0  0  0  0  0  0
   -0.1237   -1.2401    0.8074 H   0  0  0  0  0  0  0  0  0  0  0  0
    0.7719   -0.0393   -0.1094 H   0  0  0  0  0  0  0  0  0  0  0  0
   -0.3339   -1.3427   -0.9314 H   0  0  0  0  0  0  0  0  0  0  0  0
  1  2  1  0  0  0  0
  1  5  1  0  0  0  0
  2  8  1  0  0  0  0
  3  1  1  0  0  0  0
  4  1  1  0  0  0  0
  6  2  1  0  0  0  0
  6 10  1  0  0  0  0
  7  2  1  0  0  0  0
  9  6  1  0  0  0  0
  9 12  1  0  0  0  0
 11  6  1  0  0  0  0
 13  9  1  0  0  0  0
 14  9  1  0  0  0  0
M  END
$$$$
