butane_opt
 OpenBabel08242015413D

 14 13  0  0  0  0  0  0  0  0999 V2000
   -3.9623    0.2734    0.0440 C   0  0  0  0  0  0  0  0  0  0  0  0
   -2.7163   -0.6180    0.0156 C   0  0  0  0  0  0  0  0  0  0  0  0
   -4.8152   -0.2597   -0.1194 H   0  0  0  0  0  0  0  0  0  0  0  0
   -3.8942    0.6574   -0.6492 H   0  0  0  0  0  0  0  0  0  0  0  0
   -4.0405    1.2218    1.1123 H   0  0  0  0  0  0  0  0  0  0  0  0
   -1.3907    0.1625   -0.0365 C   0  0  0  0  0  0  0  0  0  0  0  0
   -2.7495   -1.3655   -0.8821 H   0  0  0  0  0  0  0  0  0  0  0  0
   -2.6668   -1.2354    0.8888 H   0  0  0  0  0  0  0  0  0  0  0  0
   -0.1488   -0.6847    0.0748 C   0  0  0  0  0  0  0  0  0  0  0  0
   -1.3831    0.6704    0.6921 H   0  0  0  0  0  0  0  0  0  0  0  0
   -1.3808    0.8747   -1.0314 H   0  0  0  0  0  0  0  0  0  0  0  0
   -0.1374   -1.3406    1.0375 H   0  0  0  0  0  0  0  0  0  0  0  0
    0.7794   -0.0513   -0.0121 H   0  0  0  0  0  0  0  0  0  0  0  0
   -0.1342   -1.2294   -0.7281 H   0  0  0  0  0  0  0  0  0  0  0  0
  1  5  1  0  0  0  0
  2  1  1  0  0  0  0
  2  8  1  0  0  0  0
  3  1  1  0  0  0  0
  4  1  1  0  0  0  0
  6  2  1  0  0  0  0
  6  9  1  0  0  0  0
  6 10  1  0  0  0  0
  7  2  1  0  0  0  0
  9 12  1  0  0  0  0
 11  6  1  0  0  0  0
 13  9  1  0  0  0  0
 14  9  1  0  0  0  0
M  END
$$$$
