butane_opt
 OpenBabel08242015413D

 14 13  0  0  0  0  0  0  0  0999 V2000
   -3.9534    0.2437   -0.0078 C   0  0  0  0  0  0  0  0  0  0  0  0
   -2.7142   -0.5936    0.0608 C   0  0  0  0  0  0  0  0  0  0  0  0
   -4.8658   -0.3800    0.1962 H   0  0  0  0  0  0  0  0  0  0  0  0
   -4.0288    1.0643   -1.0734 H   0  0  0  0  0  0  0  0  0  0  0  0
   -3.8657    0.6634    0.6921 H   0  0  0  0  0  0  0  0  0  0  0  0
   -1.4203    0.2178    0.0406 C   0  0  0  0  0  0  0  0  0  0  0  0
   -2.7531   -1.2423   -0.7701 H   0  0  0  0  0  0  0  0  0  0  0  0
   -2.7176   -1.2372    1.0187 H   0  0  0  0  0  0  0  0  0  0  0  0
   -0.1180   -0.7157   -0.0070 C   0  0  0  0  0  0  0  0  0  0  0  0
   -1.4473    1.0418    1.0023 H   0  0  0  0  0  0  0  0  0  0  0  0
   -1.3790    0.7080   -0.7485 H   0  0  0  0  0  0  0  0  0  0  0  0
   -0.1537   -1.2844    0.8655 H   0  0  0  0  0  0  0  0  0  0  0  0
    0.7777   -0.1050    0.0848 H   0  0  0  0  0  0  0  0  0  0  0  0
   -0.1086   -1.5304   -0.9174 H   0  0  0  0  0  0  0  0  0  0  0  0
  1  2  1  0  0  0  0
  1  3  1  0  0  0  0
  1  5  1  0  0  0  0
  2  8  1  0  0  0  0
  4  1  1  0  0  0  0
  6  2  1  0  0  0  0
  6 10  1  0  0  0  0
  7  2  1  0  0  0  0
  9  6  1  0  0  0  0
  9 13  1  0  0  0  0
  9 12  1  0  0  0  0
 11  6  1  0  0  0  0
 14  9  1  0  0  0  0
M  END
$$$$
