14
butane_opt
C  -3.938219   0.281825  -0.052861
C  -2.674075  -0.647247   0.114791
H  -4.807644  -0.260045  -0.139665
H  -3.843642   0.804774  -0.865174
H  -4.134471   1.042529   0.811732
C  -1.405364   0.158473   0.088058
H  -2.662302  -1.234230  -0.670345
H  -2.743806  -1.282378   1.018051
C  -0.180428  -0.679575  -0.029315
H  -1.342235   0.813353   0.914657
H  -1.430532   0.896713  -0.831417
H  -0.123711  -1.240052   0.807440
H   0.771904  -0.039307  -0.109437
H  -0.333880  -1.342714  -0.931376
