butane_opt
 OpenBabel08242015413D

 14 13  0  0  0  0  0  0  0  0999 V2000
   -3.9459    0.2646    0.0452 C   0  0  0  0  0  0  0  0  0  0  0  0
   -2.7083   -0.6312    0.0029 C   0  0  0  0  0  0  0  0  0  0  0  0
   -4.8183   -0.2437    0.0178 H   0  0  0  0  0  0  0  0  0  0  0  0
   -3.9750    0.8277   -0.7833 H   0  0  0  0  0  0  0  0  0  0  0  0
   -4.0783    1.0107    0.9639 H   0  0  0  0  0  0  0  0  0  0  0  0
   -1.3883    0.1845    0.0070 C   0  0  0  0  0  0  0  0  0  0  0  0
   -2.7155   -1.4249   -0.9077 H   0  0  0  0  0  0  0  0  0  0  0  0
   -2.7739   -1.1032    0.7627 H   0  0  0  0  0  0  0  0  0  0  0  0
   -0.1635   -0.6930    0.0514 C   0  0  0  0  0  0  0  0  0  0  0  0
   -1.3773    0.8668    0.8380 H   0  0  0  0  0  0  0  0  0  0  0  0
   -1.4055    0.8472   -0.9422 H   0  0  0  0  0  0  0  0  0  0  0  0
   -0.0501   -1.5576    1.1064 H   0  0  0  0  0  0  0  0  0  0  0  0
    0.7712   -0.0825   -0.2266 H   0  0  0  0  0  0  0  0  0  0  0  0
   -0.1409   -1.0985   -0.6213 H   0  0  0  0  0  0  0  0  0  0  0  0
  1  5  1  0  0  0  0
  2  6  1  0  0  0  0
  2  1  1  0  0  0  0
  2  8  1  0  0  0  0
  3  1  1  0  0  0  0
  4  1  1  0  0  0  0
  6  9  1  0  0  0  0
  6 10  1  0  0  0  0
  7  2  1  0  0  0  0
  9 12  1  0  0  0  0
 11  6  1  0  0  0  0
 13  9  1  0  0  0  0
 14  9  1  0  0  0  0
M  END
$$$$
