14
butane_opt
C  -3.953423   0.243705  -0.007787
C  -2.714162  -0.593586   0.060757
H  -4.865832  -0.380042   0.196245
H  -4.028819   1.064275  -1.073445
H  -3.865749   0.663398   0.692071
C  -1.420339   0.217765   0.040559
H  -2.753052  -1.242273  -0.770127
H  -2.717613  -1.237225   1.018697
C  -0.117952  -0.715676  -0.007008
H  -1.447299   1.041784   1.002261
H  -1.379005   0.708017  -0.748539
H  -0.153681  -1.284415   0.865503
H   0.777661  -0.104975   0.084761
H  -0.108631  -1.530414  -0.917400
