14
butane_opt
C  -3.962278   0.273362   0.044001
C  -2.716337  -0.617976   0.015563
H  -4.815237  -0.259667  -0.119439
H  -3.894246   0.657379  -0.649193
H  -4.040487   1.221808   1.112264
C  -1.390737   0.162544  -0.036481
H  -2.749506  -1.365549  -0.882077
H  -2.666779  -1.235432   0.888758
C  -0.148757  -0.684673   0.074819
H  -1.383060   0.670389   0.692079
H  -1.380843   0.874741  -1.031424
H  -0.137433  -1.340577   1.037532
H   0.779353  -0.051284  -0.012111
H  -0.134185  -1.229358  -0.728140
