14
butane_opt
C  -3.943850   0.240275  -0.045667
C  -2.688610  -0.567050   0.107235
H  -4.852110  -0.393920  -0.182009
H  -3.780768   0.735129  -0.905245
H  -4.007900   0.962127   0.838230
C  -1.420002   0.194462   0.069955
H  -2.677009  -1.112104  -0.583744
H  -2.700935  -1.354105   1.109544
C  -0.170474  -0.708764  -0.023453
H  -1.391051   0.862409   0.915471
H  -1.419524   0.766376  -0.797490
H  -0.078838  -1.252183   0.765882
H   0.725782  -0.103358  -0.052702
H  -0.164620  -1.490310  -0.977643
