14
butane_opt
C  -3.928803   0.284142  -0.026459
C  -2.677637  -0.635076   0.095076
H  -4.798126  -0.257934  -0.103216
H  -3.947234   0.817151  -0.875178
H  -4.071634   0.970186   0.852756
C  -1.416356   0.149157   0.055745
H  -2.612294  -1.316264  -0.775417
H  -2.794054  -1.259702   1.015496
C  -0.182074  -0.663590   0.005813
H  -1.375919   0.832088   0.882039
H  -1.430623   0.806831  -0.903635
H  -0.093421  -1.241514   0.848576
H   0.782927  -0.044139  -0.143890
H  -0.241844  -1.383282  -0.914224
