butane_opt
 OpenBabel08242015413D

 14 13  0  0  0  0  0  0  0  0999 V2000
   -3.9378    0.2705   -0.0053 C   0  0  0  0  0  0  0  0  0  0  0  0
   -2.6973   -0.6327    0.0565 C   0  0  0  0  0  0  0  0  0  0  0  0
   -4.8275   -0.3032    0.1171 H   0  0  0  0  0  0  0  0  0  0  0  0
   -3.9876    0.9805   -0.9544 H   0  0  0  0  0  0  0  0  0  0  0  0
   -3.8974    0.8720    0.8082 H   0  0  0  0  0  0  0  0  0  0  0  0
   -1.4049    0.1792    0.0368 C   0  0  0  0  0  0  0  0  0  0  0  0
   -2.6986   -1.2469   -0.7557 H   0  0  0  0  0  0  0  0  0  0  0  0
   -2.7255   -1.2627    0.9747 H   0  0  0  0  0  0  0  0  0  0  0  0
   -0.1726   -0.6866    0.0078 C   0  0  0  0  0  0  0  0  0  0  0  0
   -1.3902    0.8727    0.8899 H   0  0  0  0  0  0  0  0  0  0  0  0
   -1.4158    0.8181   -0.8604 H   0  0  0  0  0  0  0  0  0  0  0  0
   -0.1946   -1.2050    0.8580 H   0  0  0  0  0  0  0  0  0  0  0  0
    0.7687   -0.0779    0.0992 H   0  0  0  0  0  0  0  0  0  0  0  0
   -0.1142   -1.4821   -0.9088 H   0  0  0  0  0  0  0  0  0  0  0  0
  1  2  1  0  0  0  0
  1  3  1  0  0  0  0
  1  5  1  0  0  0  0
  2  8  1  0  0  0  0
  4  1  1  0  0  0  0
  6  2  1  0  0  0  0
  6 10  1  0  0  0  0
  7  2  1  0  0  0  0
  9  6  1  0  0  0  0
  9 13  1  0  0  0  0
  9 12  1  0  0  0  0
 11  6  1  0  0  0  0
 14  9  1  0  0  0  0
M  END
$$$$
