14
butane_opt
C  -3.907665   0.242872   0.074091
C  -2.708664  -0.594573  -0.044184
H  -4.809789  -0.329905   0.265370
H  -4.184710   0.896025  -0.821765
H  -3.759474   0.847223   0.922123
C  -1.417165   0.207059  -0.046465
H  -2.760868  -1.279444  -0.939599
H  -2.722955  -1.187936   0.803651
C  -0.164421  -0.709081   0.096314
H  -1.433344   0.863090   0.769039
H  -1.401298   0.859014  -0.923350
H  -0.205494  -1.364834   1.034297
H   0.741651  -0.173393   0.108532
H  -0.096032  -1.361964  -0.736792
