14
butane_opt
C  -3.924844   0.255324  -0.002869
C  -2.697823  -0.588646   0.033142
H  -4.834939  -0.370422   0.151764
H  -4.033929   1.014271  -0.989648
H  -3.845022   0.773081   0.731418
C  -1.408301   0.175638   0.054233
H  -2.781412  -1.155327  -0.709260
H  -2.758322  -1.300215   0.967875
C  -0.171522  -0.712780   0.012869
H  -1.410312   0.958783   0.947512
H  -1.428402   0.750144  -0.813453
H  -0.095062  -1.212539   0.826131
H   0.785546  -0.076195   0.004432
H  -0.193972  -1.402092  -0.875772
