butane_opt
 OpenBabel08242015413D

 14 13  0  0  0  0  0  0  0  0999 V2000
   -3.9188    0.2659   -0.0349 C   0  0  0  0  0  0  0  0  0  0  0  0
   -2.7033   -0.5959    0.1108 C   0  0  0  0  0  0  0  0  0  0  0  0
   -4.9269   -0.3950   -0.1914 H   0  0  0  0  0  0  0  0  0  0  0  0
   -3.8233    0.7974   -0.8786 H   0  0  0  0  0  0  0  0  0  0  0  0
   -4.0086    1.0145    0.8433 H   0  0  0  0  0  0  0  0  0  0  0  0
   -1.4227    0.1866    0.0432 C   0  0  0  0  0  0  0  0  0  0  0  0
   -2.6664   -1.2200   -0.7039 H   0  0  0  0  0  0  0  0  0  0  0  0
   -2.7523   -1.3621    1.1153 H   0  0  0  0  0  0  0  0  0  0  0  0
   -0.1691   -0.7007   -0.0119 C   0  0  0  0  0  0  0  0  0  0  0  0
   -1.3704    0.8921    0.9621 H   0  0  0  0  0  0  0  0  0  0  0  0
   -1.3307    0.7239   -0.8000 H   0  0  0  0  0  0  0  0  0  0  0  0
   -0.0815   -1.3013    0.8058 H   0  0  0  0  0  0  0  0  0  0  0  0
    0.7488   -0.0806   -0.0598 H   0  0  0  0  0  0  0  0  0  0  0  0
   -0.2399   -1.4174   -0.9432 H   0  0  0  0  0  0  0  0  0  0  0  0
  1  2  1  0  0  0  0
  1  5  1  0  0  0  0
  2  8  1  0  0  0  0
  3  1  1  0  0  0  0
  4  1  1  0  0  0  0
  6  2  1  0  0  0  0
  6 10  1  0  0  0  0
  7  2  1  0  0  0  0
  9  6  1  0  0  0  0
  9 12  1  0  0  0  0
 11  6  1  0  0  0  0
 13  9  1  0  0  0  0
 14  9  1  0  0  0  0
M  END
$$$$
