butane_opt
 OpenBabel08242015413D

 14 13  0  0  0  0  0  0  0  0999 V2000
   -3.9689    0.2812    0.0623 C   0  0  0  0  0  0  0  0  0  0  0  0
   -2.6871   -0.6438   -0.0314 C   0  0  0  0  0  0  0  0  0  0  0  0
   -4.8231   -0.2515    0.2366 H   0  0  0  0  0  0  0  0  0  0  0  0
   -4.1483    0.9825   -0.8723 H   0  0  0  0  0  0  0  0  0  0  0  0
   -3.9282    0.8543    0.8747 H   0  0  0  0  0  0  0  0  0  0  0  0
   -1.3819    0.1713   -0.0168 C   0  0  0  0  0  0  0  0  0  0  0  0
   -2.7113   -1.3974   -0.9494 H   0  0  0  0  0  0  0  0  0  0  0  0
   -2.6277   -1.2646    0.8238 H   0  0  0  0  0  0  0  0  0  0  0  0
   -0.1623   -0.6625    0.0703 C   0  0  0  0  0  0  0  0  0  0  0  0
   -1.3385    0.8441    0.8744 H   0  0  0  0  0  0  0  0  0  0  0  0
   -1.4182    0.7780   -0.9051 H   0  0  0  0  0  0  0  0  0  0  0  0
   -0.2291   -1.3672    1.0695 H   0  0  0  0  0  0  0  0  0  0  0  0
    0.6623   -0.1069   -0.0213 H   0  0  0  0  0  0  0  0  0  0  0  0
   -0.0645   -1.2852   -0.7080 H   0  0  0  0  0  0  0  0  0  0  0  0
  1  3  1  0  0  0  0
  1  5  1  0  0  0  0
  2  6  1  0  0  0  0
  2  1  1  0  0  0  0
  2  8  1  0  0  0  0
  4  1  1  0  0  0  0
  6  9  1  0  0  0  0
  6 10  1  0  0  0  0
  7  2  1  0  0  0  0
  9 12  1  0  0  0  0
 11  6  1  0  0  0  0
 13  9  1  0  0  0  0
 14  9  1  0  0  0  0
M  END
$$$$
