butane_opt
 OpenBabel08242015413D

 14 13  0  0  0  0  0  0  0  0999 V2000
   -3.9448    0.2462    0.0763 C   0  0  0  0  0  0  0  0  0  0  0  0
   -2.7254   -0.5875   -0.0377 C   0  0  0  0  0  0  0  0  0  0  0  0
   -4.8672   -0.3948    0.2035 H   0  0  0  0  0  0  0  0  0  0  0  0
   -4.1107    0.8948   -0.8340 H   0  0  0  0  0  0  0  0  0  0  0  0
   -3.7890    0.8470    0.9292 H   0  0  0  0  0  0  0  0  0  0  0  0
   -1.3990    0.2186   -0.0529 C   0  0  0  0  0  0  0  0  0  0  0  0
   -2.7453   -1.2786   -0.8664 H   0  0  0  0  0  0  0  0  0  0  0  0
   -2.6830   -1.2198    0.8364 H   0  0  0  0  0  0  0  0  0  0  0  0
   -0.1395   -0.7241    0.1006 C   0  0  0  0  0  0  0  0  0  0  0  0
   -1.5100    0.9371    0.7904 H   0  0  0  0  0  0  0  0  0  0  0  0
   -1.3028    0.8020   -0.9584 H   0  0  0  0  0  0  0  0  0  0  0  0
   -0.1856   -1.3594    1.0246 H   0  0  0  0  0  0  0  0  0  0  0  0
    0.7907   -0.1373    0.0827 H   0  0  0  0  0  0  0  0  0  0  0  0
   -0.1031   -1.4040   -0.8199 H   0  0  0  0  0  0  0  0  0  0  0  0
  1  3  1  0  0  0  0
  1  5  1  0  0  0  0
  2  1  1  0  0  0  0
  2  8  1  0  0  0  0
  4  1  1  0  0  0  0
  6  2  1  0  0  0  0
  6  9  1  0  0  0  0
  6 10  1  0  0  0  0
  7  2  1  0  0  0  0
  9 12  1  0  0  0  0
 11  6  1  0  0  0  0
 13  9  1  0  0  0  0
 14  9  1  0  0  0  0
M  END
$$$$
