14
butane_opt
C  -3.944954   0.266211   0.038850
C  -2.683565  -0.624483   0.004638
H  -4.848246  -0.322250   0.176311
H  -4.043882   0.957744  -0.897930
H  -3.963366   0.922576   0.885489
C  -1.408866   0.175918  -0.004265
H  -2.719106  -1.362626  -0.891693
H  -2.664741  -1.209803   0.851253
C  -0.169537  -0.681703   0.060657
H  -1.369087   0.848746   0.843269
H  -1.337355   0.832099  -0.906637
H  -0.133825  -1.322847   0.971888
H   0.741787  -0.103711  -0.016871
H  -0.194416  -1.340015  -0.772382
