14
butane_opt
C  -3.918813   0.265856  -0.034908
C  -2.703282  -0.595914   0.110808
H  -4.926879  -0.395004  -0.191422
H  -3.823259   0.797357  -0.878592
H  -4.008630   1.014484   0.843286
C  -1.422656   0.186618   0.043225
H  -2.666377  -1.219963  -0.703946
H  -2.752329  -1.362098   1.115266
C  -0.169079  -0.700730  -0.011936
H  -1.370389   0.892127   0.962070
H  -1.330668   0.723863  -0.799991
H  -0.081482  -1.301342   0.805784
H   0.748842  -0.080579  -0.059814
H  -0.239937  -1.417437  -0.943242
