butane_opt
 OpenBabel08242015413D

 14 13  0  0  0  0  0  0  0  0999 V2000
   -3.9548    0.2509   -0.0131 C   0  0  0  0  0  0  0  0  0  0  0  0
   -2.7262   -0.5921    0.0474 C   0  0  0  0  0  0  0  0  0  0  0  0
   -4.9544   -0.4325    0.3122 H   0  0  0  0  0  0  0  0  0  0  0  0
   -4.0534    1.1054   -1.1008 H   0  0  0  0  0  0  0  0  0  0  0  0
   -3.8787    0.6849    0.6731 H   0  0  0  0  0  0  0  0  0  0  0  0
   -1.3919    0.2135    0.0624 C   0  0  0  0  0  0  0  0  0  0  0  0
   -2.7169   -1.2647   -0.7917 H   0  0  0  0  0  0  0  0  0  0  0  0
   -2.6944   -1.2336    0.9303 H   0  0  0  0  0  0  0  0  0  0  0  0
   -0.1373   -0.7186    0.0169 C   0  0  0  0  0  0  0  0  0  0  0  0
   -1.3559    0.9364    0.9614 H   0  0  0  0  0  0  0  0  0  0  0  0
   -1.3686    0.8371   -0.7745 H   0  0  0  0  0  0  0  0  0  0  0  0
   -0.0630   -1.2388    0.7896 H   0  0  0  0  0  0  0  0  0  0  0  0
    0.7723   -0.1418   -0.0255 H   0  0  0  0  0  0  0  0  0  0  0  0
   -0.1642   -1.5776   -0.9426 H   0  0  0  0  0  0  0  0  0  0  0  0
  1  2  1  0  0  0  0
  1  3  1  0  0  0  0
  1  5  1  0  0  0  0
  2  6  1  0  0  0  0
  2  8  1  0  0  0  0
  4  1  1  0  0  0  0
  6 10  1  0  0  0  0
  7  2  1  0  0  0  0
  9  6  1  0  0  0  0
  9 12  1  0  0  0  0
 11  6  1  0  0  0  0
 13  9  1  0  0  0  0
 14  9  1  0  0  0  0
M  END
$$$$
