butane_opt
 OpenBabel08242015413D

 14 13  0  0  0  0  0  0  0  0999 V2000
   -3.9185    0.2696    0.0702 C   0  0  0  0  0  0  0  0  0  0  0  0
   -2.6903   -0.6193    0.0254 C   0  0  0  0  0  0  0  0  0  0  0  0
   -4.8271   -0.2923   -0.2773 H   0  0  0  0  0  0  0  0  0  0  0  0
   -3.9092    0.7160   -0.7317 H   0  0  0  0  0  0  0  0  0  0  0  0
   -4.1123    1.1394    1.0782 H   0  0  0  0  0  0  0  0  0  0  0  0
   -1.4050    0.1773   -0.0431 C   0  0  0  0  0  0  0  0  0  0  0  0
   -2.7277   -1.3690   -0.9041 H   0  0  0  0  0  0  0  0  0  0  0  0
   -2.7157   -1.2395    0.8669 H   0  0  0  0  0  0  0  0  0  0  0  0
   -0.1828   -0.6866    0.0719 C   0  0  0  0  0  0  0  0  0  0  0  0
   -1.3910    0.7474    0.6966 H   0  0  0  0  0  0  0  0  0  0  0  0
   -1.3409    0.8926   -0.9985 H   0  0  0  0  0  0  0  0  0  0  0  0
   -0.2145   -1.3982    0.9928 H   0  0  0  0  0  0  0  0  0  0  0  0
    0.7721   -0.0944   -0.0091 H   0  0  0  0  0  0  0  0  0  0  0  0
   -0.1858   -1.2618   -0.7367 H   0  0  0  0  0  0  0  0  0  0  0  0
  1  5  1  0  0  0  0
  2  1  1  0  0  0  0
  2  8  1  0  0  0  0
  3  1  1  0  0  0  0
  4  1  1  0  0  0  0
  6  2  1  0  0  0  0
  6  9  1  0  0  0  0
  6 10  1  0  0  0  0
  7  2  1  0  0  0  0
  9 12  1  0  0  0  0
 11  6  1  0  0  0  0
 13  9  1  0  0  0  0
 14  9  1  0  0  0  0
M  END
$$$$
