14
butane_opt
C  -3.943485   0.253852   0.048071
C  -2.703525  -0.615517   0.018639
H  -4.825681  -0.336961  -0.132796
H  -3.945683   0.627192  -0.690021
H  -4.029707   1.080923   1.028645
C  -1.406175   0.215605  -0.026448
H  -2.684483  -1.299785  -0.827280
H  -2.779951  -1.221147   0.884673
C  -0.137894  -0.703054   0.063799
H  -1.467813   0.811692   0.730983
H  -1.429579   0.955086  -1.007530
H  -0.175584  -1.382287   1.009057
H   0.717978  -0.153669  -0.051289
H  -0.100547  -1.373594  -0.726734
