14
butane_opt
C  -3.955404   0.274159   0.056227
C  -2.692103  -0.639861   0.018162
H  -4.837651  -0.259016  -0.164786
H  -4.007403   0.679255  -0.718560
H  -4.090366   1.182310   1.065376
C  -1.390734   0.170153  -0.057796
H  -2.731750  -1.275903  -0.835894
H  -2.569566  -1.298555   0.868076
C  -0.177877  -0.675254   0.072134
H  -1.352625   0.843409   0.771183
H  -1.328168   0.807124  -0.940513
H  -0.121804  -1.363688   1.002264
H   0.739675  -0.109136   0.034054
H  -0.125384  -1.227917  -0.674136
