14
butane_opt
C  -3.954807   0.250855  -0.013074
C  -2.726236  -0.592138   0.047401
H  -4.954409  -0.432511   0.312176
H  -4.053386   1.105363  -1.100795
H  -3.878652   0.684856   0.673058
C  -1.391923   0.213521   0.062430
H  -2.716936  -1.264695  -0.791696
H  -2.694434  -1.233618   0.930299
C  -0.137296  -0.718553   0.016877
H  -1.355856   0.936391   0.961406
H  -1.368641   0.837130  -0.774550
H  -0.063022  -1.238849   0.789609
H   0.772304  -0.141846  -0.025550
H  -0.164210  -1.577574  -0.942620
