butane_opt
 OpenBabel08242015413D

 14 13  0  0  0  0  0  0  0  0999 V2000
   -3.9404    0.2535    0.0616 C   0  0  0  0  0  0  0  0  0  0  0  0
   -2.6945   -0.5991   -0.0166 C   0  0  0  0  0  0  0  0  0  0  0  0
   -4.8758   -0.4051    0.0045 H   0  0  0  0  0  0  0  0  0  0  0  0
   -3.9633    0.8275   -0.7962 H   0  0  0  0  0  0  0  0  0  0  0  0
   -3.9172    1.0194    1.0226 H   0  0  0  0  0  0  0  0  0  0  0  0
   -1.4258    0.1808   -0.0325 C   0  0  0  0  0  0  0  0  0  0  0  0
   -2.7766   -1.3341   -0.9313 H   0  0  0  0  0  0  0  0  0  0  0  0
   -2.7307   -1.1462    0.8500 H   0  0  0  0  0  0  0  0  0  0  0  0
   -0.1457   -0.6972    0.0813 C   0  0  0  0  0  0  0  0  0  0  0  0
   -1.4236    0.9239    0.8410 H   0  0  0  0  0  0  0  0  0  0  0  0
   -1.4333    0.7638   -0.9253 H   0  0  0  0  0  0  0  0  0  0  0  0
   -0.0822   -1.5156    1.0868 H   0  0  0  0  0  0  0  0  0  0  0  0
    0.7710   -0.0771   -0.1994 H   0  0  0  0  0  0  0  0  0  0  0  0
   -0.1161   -1.1772   -0.6143 H   0  0  0  0  0  0  0  0  0  0  0  0
  1  5  1  0  0  0  0
  2  1  1  0  0  0  0
  2  8  1  0  0  0  0
  3  1  1  0  0  0  0
  4  1  1  0  0  0  0
  6  2  1  0  0  0  0
  6  9  1  0  0  0  0
  6 10  1  0  0  0  0
  7  2  1  0  0  0  0
  9 12  1  0  0  0  0
 11  6  1  0  0  0  0
 13  9  1  0  0  0  0
 14  9  1  0  0  0  0
M  END
$$$$
