14
butane_opt
C  -3.940442   0.253546   0.061645
C  -2.694506  -0.599091  -0.016570
H  -4.875754  -0.405060   0.004477
H  -3.963294   0.827470  -0.796174
H  -3.917226   1.019386   1.022588
C  -1.425822   0.180774  -0.032545
H  -2.776558  -1.334055  -0.931341
H  -2.730660  -1.146222   0.849986
C  -0.145678  -0.697242   0.081292
H  -1.423638   0.923911   0.840984
H  -1.433317   0.763761  -0.925326
H  -0.082236  -1.515600   1.086833
H   0.770954  -0.077128  -0.199433
H  -0.116057  -1.177186  -0.614335
