14
butane_opt
C  -3.944774   0.258715   0.048828
C  -2.716110  -0.606701  -0.000287
H  -4.851760  -0.339347   0.093605
H  -4.002692   0.888455  -0.844537
H  -3.924215   0.931310   0.914518
C  -1.408480   0.192396  -0.008611
H  -2.802244  -1.316691  -0.912050
H  -2.674268  -1.191143   0.845669
C  -0.143744  -0.704520   0.063339
H  -1.412812   0.809435   0.792153
H  -1.345545   0.835799  -0.920350
H  -0.086861  -1.386940   0.986695
H   0.766362  -0.079346   0.009742
H  -0.132420  -1.298356  -0.758382
