14
butane_opt
C  -3.941575   0.269231   0.029537
C  -2.679568  -0.629492  -0.014838
H  -4.847226  -0.316114   0.325779
H  -4.105908   1.055306  -0.949375
H  -3.775644   0.820286   0.865829
C  -1.406194   0.160043   0.015704
H  -2.705098  -1.311634  -0.864593
H  -2.646610  -1.232968   0.904430
C  -0.184303  -0.672084   0.045024
H  -1.434348   0.886642   0.878997
H  -1.378027   0.850453  -0.901287
H  -0.169837  -1.316486   0.989990
H   0.689090  -0.084915   0.119950
H  -0.118391  -1.358848  -0.851769
