14
butane_opt
C  -3.935793   0.251148  -0.031740
C  -2.719557  -0.622247   0.102519
H  -4.816926  -0.300003   0.068058
H  -3.989545   1.043314  -1.009981
H  -3.971985   0.845399   0.781101
C  -1.414894   0.210153   0.040747
H  -2.699368  -1.303866  -0.704682
H  -2.709015  -1.298874   1.016817
C  -0.136311  -0.695462  -0.020204
H  -1.356220   0.896832   0.937430
H  -1.467465   0.776007  -0.770040
H  -0.207477  -1.185040   0.784269
H   0.735085  -0.117431   0.186145
H  -0.057997  -1.548356  -0.980395
