14
butane_opt
C  -3.971279   0.282144   0.085700
C  -2.703523  -0.621000  -0.024796
H  -4.899370  -0.340956   0.193022
H  -4.102061   0.917747  -0.835976
H  -4.026975   0.987242   0.977644
C  -1.376938   0.156840  -0.066398
H  -2.676085  -1.403667  -0.920586
H  -2.669921  -1.238375   0.824504
C  -0.156568  -0.677909   0.094302
H  -1.349370   0.757602   0.760617
H  -1.276481   0.869314  -1.015172
H  -0.292664  -1.254803   0.972736
H   0.776642  -0.071178   0.221145
H   0.001549  -1.371663  -0.797150
