14
butane_opt
C  -3.926775   0.229825  -0.008069
C  -2.697905  -0.583841   0.063941
H  -4.894580  -0.413904   0.248083
H  -3.973933   1.132135  -1.058108
H  -3.878932   0.698546   0.732037
C  -1.414496   0.206814   0.047238
H  -2.689598  -1.289159  -0.861895
H  -2.661399  -1.137273   0.906772
C  -0.166981  -0.707478   0.002863
H  -1.451226   0.929211   0.931509
H  -1.387088   0.793999  -0.799909
H  -0.083087  -1.276375   0.875479
H   0.678669  -0.190934   0.087179
H  -0.181135  -1.482426  -0.924441
