14
butane_opt
C  -3.927634   0.238455   0.056688
C  -2.702920  -0.570984  -0.002304
H  -4.838668  -0.367594   0.047304
H  -3.900643   0.863809  -0.919530
H  -3.935741   0.946286   0.953362
C  -1.419647   0.187551  -0.010188
H  -2.757148  -1.418299  -0.928227
H  -2.719148  -1.101610   0.820364
C  -0.160347  -0.719303   0.069303
H  -1.440738   0.914517   0.863531
H  -1.366071   0.824629  -0.910282
H  -0.072092  -1.481384   1.054728
H   0.784542  -0.088504  -0.223365
H  -0.241059  -1.179625  -0.661624
