butane_opt
 OpenBabel08242015413D

 14 13  0  0  0  0  0  0  0  0999 V2000
   -3.9419    0.2669   -0.0093 C   0  0  0  0  0  0  0  0  0  0  0  0
   -2.6810   -0.6238    0.0734 C   0  0  0  0  0  0  0  0  0  0  0  0
   -4.8309   -0.3085   -0.0741 H   0  0  0  0  0  0  0  0  0  0  0  0
   -3.9317    0.8967   -0.8989 H   0  0  0  0  0  0  0  0  0  0  0  0
   -4.0425    0.9629    0.8761 H   0  0  0  0  0  0  0  0  0  0  0  0
   -1.4048    0.1747    0.0324 C   0  0  0  0  0  0  0  0  0  0  0  0
   -2.7013   -1.2292   -0.7291 H   0  0  0  0  0  0  0  0  0  0  0  0
   -2.7461   -1.2915    0.9857 H   0  0  0  0  0  0  0  0  0  0  0  0
   -0.1758   -0.6858   -0.0016 C   0  0  0  0  0  0  0  0  0  0  0  0
   -1.3257    0.8722    0.9241 H   0  0  0  0  0  0  0  0  0  0  0  0
   -1.4856    0.7540   -0.8334 H   0  0  0  0  0  0  0  0  0  0  0  0
   -0.1469   -1.2887    0.8652 H   0  0  0  0  0  0  0  0  0  0  0  0
    0.7762   -0.0554    0.0316 H   0  0  0  0  0  0  0  0  0  0  0  0
   -0.1536   -1.3579   -0.8409 H   0  0  0  0  0  0  0  0  0  0  0  0
  1  2  1  0  0  0  0
  1  5  1  0  0  0  0
  2  8  1  0  0  0  0
  3  1  1  0  0  0  0
  4  1  1  0  0  0  0
  6  2  1  0  0  0  0
  6 10  1  0  0  0  0
  7  2  1  0  0  0  0
  9 13  1  0  0  0  0
  9  6  1  0  0  0  0
  9 12  1  0  0  0  0
 11  6  1  0  0  0  0
 14  9  1  0  0  0  0
M  END
$$$$
