butane_opt
 OpenBabel08242015413D

 14 13  0  0  0  0  0  0  0  0999 V2000
   -3.9276    0.2385    0.0567 C   0  0  0  0  0  0  0  0  0  0  0  0
   -2.7029   -0.5710   -0.0023 C   0  0  0  0  0  0  0  0  0  0  0  0
   -4.8387   -0.3676    0.0473 H   0  0  0  0  0  0  0  0  0  0  0  0
   -3.9006    0.8638   -0.9195 H   0  0  0  0  0  0  0  0  0  0  0  0
   -3.9357    0.9463    0.9534 H   0  0  0  0  0  0  0  0  0  0  0  0
   -1.4196    0.1876   -0.0102 C   0  0  0  0  0  0  0  0  0  0  0  0
   -2.7571   -1.4183   -0.9282 H   0  0  0  0  0  0  0  0  0  0  0  0
   -2.7191   -1.1016    0.8204 H   0  0  0  0  0  0  0  0  0  0  0  0
   -0.1603   -0.7193    0.0693 C   0  0  0  0  0  0  0  0  0  0  0  0
   -1.4407    0.9145    0.8635 H   0  0  0  0  0  0  0  0  0  0  0  0
   -1.3661    0.8246   -0.9103 H   0  0  0  0  0  0  0  0  0  0  0  0
   -0.0721   -1.4814    1.0547 H   0  0  0  0  0  0  0  0  0  0  0  0
    0.7845   -0.0885   -0.2234 H   0  0  0  0  0  0  0  0  0  0  0  0
   -0.2411   -1.1796   -0.6616 H   0  0  0  0  0  0  0  0  0  0  0  0
  1  5  1  0  0  0  0
  2  1  1  0  0  0  0
  2  8  1  0  0  0  0
  3  1  1  0  0  0  0
  4  1  1  0  0  0  0
  6  2  1  0  0  0  0
  6  9  1  0  0  0  0
  6 10  1  0  0  0  0
  7  2  1  0  0  0  0
  9 12  1  0  0  0  0
 11  6  1  0  0  0  0
 13  9  1  0  0  0  0
 14  9  1  0  0  0  0
M  END
$$$$
