butane_opt
 OpenBabel08242015413D

 14 13  0  0  0  0  0  0  0  0999 V2000
   -3.9336    0.2527   -0.0579 C   0  0  0  0  0  0  0  0  0  0  0  0
   -2.7309   -0.6167    0.1064 C   0  0  0  0  0  0  0  0  0  0  0  0
   -4.8367   -0.3273   -0.0167 H   0  0  0  0  0  0  0  0  0  0  0  0
   -3.9485    0.9051   -0.9965 H   0  0  0  0  0  0  0  0  0  0  0  0
   -3.9732    0.9147    0.7639 H   0  0  0  0  0  0  0  0  0  0  0  0
   -1.4032    0.2178    0.1140 C   0  0  0  0  0  0  0  0  0  0  0  0
   -2.6698   -1.3170   -0.7990 H   0  0  0  0  0  0  0  0  0  0  0  0
   -2.7816   -1.2550    0.9885 H   0  0  0  0  0  0  0  0  0  0  0  0
   -0.1501   -0.7181   -0.0288 C   0  0  0  0  0  0  0  0  0  0  0  0
   -1.3175    0.9329    0.9937 H   0  0  0  0  0  0  0  0  0  0  0  0
   -1.4670    0.8679   -0.7994 H   0  0  0  0  0  0  0  0  0  0  0  0
    0.0541   -1.3676    0.8353 H   0  0  0  0  0  0  0  0  0  0  0  0
    0.7502   -0.1267   -0.3026 H   0  0  0  0  0  0  0  0  0  0  0  0
   -0.2160   -1.3220   -0.8288 H   0  0  0  0  0  0  0  0  0  0  0  0
  1  3  1  0  0  0  0
  1  2  1  0  0  0  0
  1  5  1  0  0  0  0
  2  6  1  0  0  0  0
  2  8  1  0  0  0  0
  4  1  1  0  0  0  0
  6 10  1  0  0  0  0
  7  2  1  0  0  0  0
  9  6  1  0  0  0  0
  9 12  1  0  0  0  0
 11  6  1  0  0  0  0
 13  9  1  0  0  0  0
 14  9  1  0  0  0  0
M  END
$$$$
