butane_opt
 OpenBabel08242015413D

 14 13  0  0  0  0  0  0  0  0999 V2000
   -3.9541    0.2843    0.0295 C   0  0  0  0  0  0  0  0  0  0  0  0
   -2.6921   -0.6188    0.0066 C   0  0  0  0  0  0  0  0  0  0  0  0
   -4.8482   -0.3281    0.0487 H   0  0  0  0  0  0  0  0  0  0  0  0
   -3.9658    0.7776   -0.8017 H   0  0  0  0  0  0  0  0  0  0  0  0
   -3.8870    1.0084    0.9513 H   0  0  0  0  0  0  0  0  0  0  0  0
   -1.3813    0.1643   -0.0027 C   0  0  0  0  0  0  0  0  0  0  0  0
   -2.7423   -1.3684   -0.9150 H   0  0  0  0  0  0  0  0  0  0  0  0
   -2.6108   -1.1744    0.8879 H   0  0  0  0  0  0  0  0  0  0  0  0
   -0.1862   -0.6836    0.0496 C   0  0  0  0  0  0  0  0  0  0  0  0
   -1.3664    0.8438    0.8545 H   0  0  0  0  0  0  0  0  0  0  0  0
   -1.4381    0.7104   -0.8298 H   0  0  0  0  0  0  0  0  0  0  0  0
   -0.1837   -1.4845    1.1095 H   0  0  0  0  0  0  0  0  0  0  0  0
    0.7583   -0.0798   -0.1985 H   0  0  0  0  0  0  0  0  0  0  0  0
   -0.1820   -1.1156   -0.6399 H   0  0  0  0  0  0  0  0  0  0  0  0
  1  3  1  0  0  0  0
  1  5  1  0  0  0  0
  2  1  1  0  0  0  0
  2  8  1  0  0  0  0
  4  1  1  0  0  0  0
  6  2  1  0  0  0  0
  6  9  1  0  0  0  0
  6 10  1  0  0  0  0
  7  2  1  0  0  0  0
  9 12  1  0  0  0  0
 11  6  1  0  0  0  0
 13  9  1  0  0  0  0
 14  9  1  0  0  0  0
M  END
$$$$
