butane_opt
 OpenBabel08242015413D

 14 13  0  0  0  0  0  0  0  0999 V2000
   -3.9355    0.2581   -0.0326 C   0  0  0  0  0  0  0  0  0  0  0  0
   -2.7079   -0.6224    0.0955 C   0  0  0  0  0  0  0  0  0  0  0  0
   -4.8822   -0.4092    0.0487 H   0  0  0  0  0  0  0  0  0  0  0  0
   -3.9383    0.9610   -0.9807 H   0  0  0  0  0  0  0  0  0  0  0  0
   -4.0038    0.9022    0.8119 H   0  0  0  0  0  0  0  0  0  0  0  0
   -1.4119    0.2094    0.0372 C   0  0  0  0  0  0  0  0  0  0  0  0
   -2.7219   -1.1586   -0.6816 H   0  0  0  0  0  0  0  0  0  0  0  0
   -2.7818   -1.4225    1.0799 H   0  0  0  0  0  0  0  0  0  0  0  0
   -0.1428   -0.7029    0.0017 C   0  0  0  0  0  0  0  0  0  0  0  0
   -1.4180    0.9707    0.9126 H   0  0  0  0  0  0  0  0  0  0  0  0
   -1.4629    0.8211   -0.8029 H   0  0  0  0  0  0  0  0  0  0  0  0
   -0.0935   -1.0892    0.7088 H   0  0  0  0  0  0  0  0  0  0  0  0
    0.7220   -0.1362    0.1227 H   0  0  0  0  0  0  0  0  0  0  0  0
   -0.0602   -1.6309   -1.0327 H   0  0  0  0  0  0  0  0  0  0  0  0
  1  3  1  0  0  0  0
  1  2  1  0  0  0  0
  1  5  1  0  0  0  0
  2  8  1  0  0  0  0
  4  1  1  0  0  0  0
  6  2  1  0  0  0  0
  6 10  1  0  0  0  0
  7  2  1  0  0  0  0
  9  6  1  0  0  0  0
  9 13  1  0  0  0  0
  9 12  1  0  0  0  0
 11  6  1  0  0  0  0
 14  9  1  0  0  0  0
M  END
$$$$
