14
butane_opt
C  -3.977030   0.290621   0.064897
C  -2.712543  -0.634851   0.020311
H  -4.854322  -0.281726  -0.025824
H  -3.983275   0.822586  -0.757029
H  -4.045091   1.018655   0.978163
C  -1.377959   0.154642  -0.070184
H  -2.756964  -1.353394  -0.840945
H  -2.613514  -1.206042   0.873549
C  -0.158905  -0.675358   0.074989
H  -1.397586   0.765568   0.725192
H  -1.229155   0.834680  -0.953680
H  -0.211127  -1.247510   0.950281
H   0.791099  -0.024458   0.229853
H  -0.020736  -1.419240  -0.827129
