14
butane_opt
C  -3.967538   0.240924  -0.007376
C  -2.707388  -0.581576   0.069346
H  -4.872756  -0.392272   0.138994
H  -3.950197   1.012483  -0.996348
H  -3.975176   0.700539   0.706757
C  -1.409712   0.208259   0.051570
H  -2.784508  -1.280465  -0.840140
H  -2.671997  -1.207005   0.933415
C  -0.135837  -0.717583  -0.005876
H  -1.364117   0.921404   0.923779
H  -1.383685   0.839094  -0.810724
H  -0.007940  -1.271767   0.865379
H   0.750627  -0.134920   0.100335
H  -0.109242  -1.467640  -0.897244
