butane_opt
 OpenBabel08242015413D

 14 13  0  0  0  0  0  0  0  0999 V2000
   -3.9472    0.2459   -0.0252 C   0  0  0  0  0  0  0  0  0  0  0  0
   -2.7149   -0.6157    0.0733 C   0  0  0  0  0  0  0  0  0  0  0  0
   -4.7997   -0.2831    0.1875 H   0  0  0  0  0  0  0  0  0  0  0  0
   -4.0149    1.0817   -1.0661 H   0  0  0  0  0  0  0  0  0  0  0  0
   -3.8955    0.8175    0.7237 H   0  0  0  0  0  0  0  0  0  0  0  0
   -1.4103    0.2006    0.0566 C   0  0  0  0  0  0  0  0  0  0  0  0
   -2.7159   -1.2707   -0.7633 H   0  0  0  0  0  0  0  0  0  0  0  0
   -2.8583   -1.2393    1.0344 H   0  0  0  0  0  0  0  0  0  0  0  0
   -0.1391   -0.7057   -0.0100 C   0  0  0  0  0  0  0  0  0  0  0  0
   -1.3260    1.0053    1.0084 H   0  0  0  0  0  0  0  0  0  0  0  0
   -1.4162    0.7165   -0.7579 H   0  0  0  0  0  0  0  0  0  0  0  0
   -0.1208   -1.2322    0.8405 H   0  0  0  0  0  0  0  0  0  0  0  0
    0.7304   -0.1368   -0.0243 H   0  0  0  0  0  0  0  0  0  0  0  0
   -0.0696   -1.4304   -0.9078 H   0  0  0  0  0  0  0  0  0  0  0  0
  1  2  1  0  0  0  0
  1  3  1  0  0  0  0
  1  5  1  0  0  0  0
  2  8  1  0  0  0  0
  4  1  1  0  0  0  0
  6  2  1  0  0  0  0
  6 10  1  0  0  0  0
  7  2  1  0  0  0  0
  9  6  1  0  0  0  0
  9 12  1  0  0  0  0
 11  6  1  0  0  0  0
 13  9  1  0  0  0  0
 14  9  1  0  0  0  0
M  END
$$$$
