butane_opt
 OpenBabel08242015413D

 14 13  0  0  0  0  0  0  0  0999 V2000
   -3.9417    0.2801    0.0384 C   0  0  0  0  0  0  0  0  0  0  0  0
   -2.6837   -0.6331    0.0086 C   0  0  0  0  0  0  0  0  0  0  0  0
   -4.8468   -0.3310    0.0277 H   0  0  0  0  0  0  0  0  0  0  0  0
   -3.9870    0.8394   -0.8167 H   0  0  0  0  0  0  0  0  0  0  0  0
   -3.9646    0.9809    0.9321 H   0  0  0  0  0  0  0  0  0  0  0  0
   -1.4019    0.1766    0.0065 C   0  0  0  0  0  0  0  0  0  0  0  0
   -2.7252   -1.3954   -0.9097 H   0  0  0  0  0  0  0  0  0  0  0  0
   -2.6539   -1.1982    0.8498 H   0  0  0  0  0  0  0  0  0  0  0  0
   -0.1784   -0.6778    0.0450 C   0  0  0  0  0  0  0  0  0  0  0  0
   -1.3790    0.8294    0.8474 H   0  0  0  0  0  0  0  0  0  0  0  0
   -1.4013    0.8380   -0.9340 H   0  0  0  0  0  0  0  0  0  0  0  0
   -0.1420   -1.4791    1.1041 H   0  0  0  0  0  0  0  0  0  0  0  0
    0.7468   -0.0824   -0.0889 H   0  0  0  0  0  0  0  0  0  0  0  0
   -0.2090   -1.2170   -0.7291 H   0  0  0  0  0  0  0  0  0  0  0  0
  1  5  1  0  0  0  0
  2  1  1  0  0  0  0
  2  8  1  0  0  0  0
  3  1  1  0  0  0  0
  4  1  1  0  0  0  0
  6  2  1  0  0  0  0
  6  9  1  0  0  0  0
  6 10  1  0  0  0  0
  7  2  1  0  0  0  0
  9 12  1  0  0  0  0
 11  6  1  0  0  0  0
 13  9  1  0  0  0  0
 14  9  1  0  0  0  0
M  END
$$$$
