14
butane_opt
C  -3.928733   0.293403  -0.010488
C  -2.699760  -0.650992   0.077600
H  -4.876821  -0.273006  -0.084123
H  -3.953733   0.936229  -0.960499
H  -4.020198   0.904653   0.802323
C  -1.391566   0.161123   0.071072
H  -2.654324  -1.373451  -0.781927
H  -2.740716  -1.194446   0.928892
C  -0.179652  -0.676243  -0.020224
H  -1.372268   0.869900   0.909083
H  -1.413202   0.791888  -0.797456
H  -0.118522  -1.370106   0.939567
H   0.740834  -0.062460  -0.141917
H  -0.225043  -1.226600  -0.789392
