butane_opt
 OpenBabel08242015413D

 14 13  0  0  0  0  0  0  0  0999 V2000
   -3.9429    0.2304   -0.0033 C   0  0  0  0  0  0  0  0  0  0  0  0
   -2.6899   -0.5755    0.0779 C   0  0  0  0  0  0  0  0  0  0  0  0
   -4.8545   -0.3738   -0.1749 H   0  0  0  0  0  0  0  0  0  0  0  0
   -3.8044    0.7293   -0.8250 H   0  0  0  0  0  0  0  0  0  0  0  0
   -4.0162    1.0483    0.9729 H   0  0  0  0  0  0  0  0  0  0  0  0
   -1.4164    0.2037    0.0313 C   0  0  0  0  0  0  0  0  0  0  0  0
   -2.6450   -1.2733   -0.7938 H   0  0  0  0  0  0  0  0  0  0  0  0
   -2.8063   -1.2347    0.9791 H   0  0  0  0  0  0  0  0  0  0  0  0
   -0.1675   -0.7147    0.0119 C   0  0  0  0  0  0  0  0  0  0  0  0
   -1.3801    0.8115    0.8492 H   0  0  0  0  0  0  0  0  0  0  0  0
   -1.4326    0.9326   -0.9513 H   0  0  0  0  0  0  0  0  0  0  0  0
   -0.0831   -1.2787    0.8955 H   0  0  0  0  0  0  0  0  0  0  0  0
    0.7163   -0.2153   -0.0879 H   0  0  0  0  0  0  0  0  0  0  0  0
   -0.1050   -1.3519   -0.8187 H   0  0  0  0  0  0  0  0  0  0  0  0
  1  2  1  0  0  0  0
  1  5  1  0  0  0  0
  2  8  1  0  0  0  0
  3  1  1  0  0  0  0
  4  1  1  0  0  0  0
  6  2  1  0  0  0  0
  6 10  1  0  0  0  0
  7  2  1  0  0  0  0
  9  6  1  0  0  0  0
  9 12  1  0  0  0  0
 11  6  1  0  0  0  0
 13  9  1  0  0  0  0
 14  9  1  0  0  0  0
M  END
$$$$
