butane_opt
 OpenBabel08242015413D

 14 13  0  0  0  0  0  0  0  0999 V2000
   -3.9566    0.2510   -0.0114 C   0  0  0  0  0  0  0  0  0  0  0  0
   -2.7074   -0.6105    0.0699 C   0  0  0  0  0  0  0  0  0  0  0  0
   -4.8875   -0.3725    0.1652 H   0  0  0  0  0  0  0  0  0  0  0  0
   -3.9745    1.0022   -1.0046 H   0  0  0  0  0  0  0  0  0  0  0  0
   -3.9180    0.7454    0.7250 H   0  0  0  0  0  0  0  0  0  0  0  0
   -1.3976    0.2255    0.0561 C   0  0  0  0  0  0  0  0  0  0  0  0
   -2.6759   -1.3726   -0.8451 H   0  0  0  0  0  0  0  0  0  0  0  0
   -2.7569   -1.1843    0.9059 H   0  0  0  0  0  0  0  0  0  0  0  0
   -0.1442   -0.7040    0.0006 C   0  0  0  0  0  0  0  0  0  0  0  0
   -1.3993    0.9551    0.9630 H   0  0  0  0  0  0  0  0  0  0  0  0
   -1.4492    0.7954   -0.8097 H   0  0  0  0  0  0  0  0  0  0  0  0
   -0.1026   -1.3913    0.9216 H   0  0  0  0  0  0  0  0  0  0  0  0
    0.6714   -0.1633   -0.0858 H   0  0  0  0  0  0  0  0  0  0  0  0
   -0.0597   -1.4332   -0.8955 H   0  0  0  0  0  0  0  0  0  0  0  0
  1  2  1  0  0  0  0
  1  3  1  0  0  0  0
  1  5  1  0  0  0  0
  2  8  1  0  0  0  0
  4  1  1  0  0  0  0
  6  2  1  0  0  0  0
  6 10  1  0  0  0  0
  7  2  1  0  0  0  0
  9  6  1  0  0  0  0
  9 12  1  0  0  0  0
 11  6  1  0  0  0  0
 13  9  1  0  0  0  0
 14  9  1  0  0  0  0
M  END
$$$$
