14
butane_opt
C  -3.916846   0.244078  -0.020849
C  -2.711640  -0.589752   0.078513
H  -4.847643  -0.352066   0.175229
H  -3.900909   1.038259  -1.022764
H  -3.940939   0.716703   0.709539
C  -1.418453   0.206898   0.048449
H  -2.654437  -1.262828  -0.770293
H  -2.748294  -1.274265   1.013065
C  -0.156799  -0.698232  -0.007354
H  -1.391599   0.948894   0.961952
H  -1.478380   0.673492  -0.768450
H  -0.130474  -1.208263   0.792525
H   0.652309  -0.206191   0.060209
H  -0.127155  -1.502413  -0.920318
