butane_opt
 OpenBabel08242015413D

 14 13  0  0  0  0  0  0  0  0999 V2000
   -3.9413    0.2850    0.0338 C   0  0  0  0  0  0  0  0  0  0  0  0
   -2.6707   -0.6191    0.0370 C   0  0  0  0  0  0  0  0  0  0  0  0
   -4.9221   -0.3753   -0.1921 H   0  0  0  0  0  0  0  0  0  0  0  0
   -3.8843    0.6365   -0.6905 H   0  0  0  0  0  0  0  0  0  0  0  0
   -4.0739    1.1849    1.0579 H   0  0  0  0  0  0  0  0  0  0  0  0
   -1.4062    0.1532   -0.0289 C   0  0  0  0  0  0  0  0  0  0  0  0
   -2.6505   -1.2362   -0.7910 H   0  0  0  0  0  0  0  0  0  0  0  0
   -2.7571   -1.3047    0.9413 H   0  0  0  0  0  0  0  0  0  0  0  0
   -0.1806   -0.6713    0.0504 C   0  0  0  0  0  0  0  0  0  0  0  0
   -1.3758    0.7666    0.7525 H   0  0  0  0  0  0  0  0  0  0  0  0
   -1.3775    0.7901   -0.9072 H   0  0  0  0  0  0  0  0  0  0  0  0
   -0.1703   -1.3960    1.0108 H   0  0  0  0  0  0  0  0  0  0  0  0
    0.7415   -0.0580    0.0069 H   0  0  0  0  0  0  0  0  0  0  0  0
   -0.1685   -1.2623   -0.8089 H   0  0  0  0  0  0  0  0  0  0  0  0
  1  2  1  0  0  0  0
  1  5  1  0  0  0  0
  2  8  1  0  0  0  0
  3  1  1  0  0  0  0
  4  1  1  0  0  0  0
  6  2  1  0  0  0  0
  6  9  1  0  0  0  0
  6 10  1  0  0  0  0
  7  2  1  0  0  0  0
  9 12  1  0  0  0  0
 11  6  1  0  0  0  0
 13  9  1  0  0  0  0
 14  9  1  0  0  0  0
M  END
$$$$
