14
butane_opt
C  -3.931160   0.268140   0.078703
C  -2.699798  -0.599901  -0.020484
H  -4.902748  -0.401565   0.078927
H  -3.935908   0.796606  -0.773663
H  -3.845706   0.997700   1.017884
C  -1.415542   0.180145  -0.070606
H  -2.737381  -1.307743  -0.909459
H  -2.669154  -1.227636   0.894287
C  -0.170165  -0.705517   0.082978
H  -1.349094   0.832763   0.763624
H  -1.395345   0.845635  -0.992691
H  -0.287244  -1.298431   0.997325
H   0.752801  -0.087114   0.213424
H  -0.046271  -1.340824  -0.680425
