butane_opt
 OpenBabel08242015413D

 14 13  0  0  0  0  0  0  0  0999 V2000
   -3.9381    0.2604    0.0303 C   0  0  0  0  0  0  0  0  0  0  0  0
   -2.6981   -0.6086    0.0349 C   0  0  0  0  0  0  0  0  0  0  0  0
   -4.8834   -0.3832   -0.1020 H   0  0  0  0  0  0  0  0  0  0  0  0
   -3.8784    0.7417   -0.7908 H   0  0  0  0  0  0  0  0  0  0  0  0
   -3.9688    1.0481    0.9932 H   0  0  0  0  0  0  0  0  0  0  0  0
   -1.4222    0.1891   -0.0098 C   0  0  0  0  0  0  0  0  0  0  0  0
   -2.6999   -1.2986   -0.7968 H   0  0  0  0  0  0  0  0  0  0  0  0
   -2.6688   -1.1997    0.9105 H   0  0  0  0  0  0  0  0  0  0  0  0
   -0.1582   -0.6968    0.0453 C   0  0  0  0  0  0  0  0  0  0  0  0
   -1.3914    0.8073    0.7927 H   0  0  0  0  0  0  0  0  0  0  0  0
   -1.3755    0.8996   -0.9527 H   0  0  0  0  0  0  0  0  0  0  0  0
   -0.1252   -1.3642    0.9854 H   0  0  0  0  0  0  0  0  0  0  0  0
    0.7471   -0.1272    0.0222 H   0  0  0  0  0  0  0  0  0  0  0  0
   -0.1749   -1.3360   -0.8109 H   0  0  0  0  0  0  0  0  0  0  0  0
  1  2  1  0  0  0  0
  1  5  1  0  0  0  0
  2  8  1  0  0  0  0
  3  1  1  0  0  0  0
  4  1  1  0  0  0  0
  6  2  1  0  0  0  0
  6  9  1  0  0  0  0
  6 10  1  0  0  0  0
  7  2  1  0  0  0  0
  9 12  1  0  0  0  0
 11  6  1  0  0  0  0
 13  9  1  0  0  0  0
 14  9  1  0  0  0  0
M  END
$$$$
