butane_opt
 OpenBabel08242015413D

 14 13  0  0  0  0  0  0  0  0999 V2000
   -3.9632    0.2469   -0.0188 C   0  0  0  0  0  0  0  0  0  0  0  0
   -2.7127   -0.6067    0.0546 C   0  0  0  0  0  0  0  0  0  0  0  0
   -4.9068   -0.3702    0.2427 H   0  0  0  0  0  0  0  0  0  0  0  0
   -3.9583    1.0907   -1.0174 H   0  0  0  0  0  0  0  0  0  0  0  0
   -3.8517    0.7184    0.7197 H   0  0  0  0  0  0  0  0  0  0  0  0
   -1.4040    0.2129    0.0712 C   0  0  0  0  0  0  0  0  0  0  0  0
   -2.6885   -1.2596   -0.7754 H   0  0  0  0  0  0  0  0  0  0  0  0
   -2.7631   -1.2177    0.9399 H   0  0  0  0  0  0  0  0  0  0  0  0
   -0.1328   -0.7109   -0.0010 C   0  0  0  0  0  0  0  0  0  0  0  0
   -1.4884    0.8704    0.9434 H   0  0  0  0  0  0  0  0  0  0  0  0
   -1.4000    0.8241   -0.8024 H   0  0  0  0  0  0  0  0  0  0  0  0
   -0.0549   -1.2044    0.7943 H   0  0  0  0  0  0  0  0  0  0  0  0
    0.7372   -0.1716   -0.0082 H   0  0  0  0  0  0  0  0  0  0  0  0
   -0.0977   -1.4588   -0.9092 H   0  0  0  0  0  0  0  0  0  0  0  0
  1  2  1  0  0  0  0
  1  3  1  0  0  0  0
  1  5  1  0  0  0  0
  2  6  1  0  0  0  0
  2  8  1  0  0  0  0
  4  1  1  0  0  0  0
  6 10  1  0  0  0  0
  7  2  1  0  0  0  0
  9  6  1  0  0  0  0
  9 12  1  0  0  0  0
 11  6  1  0  0  0  0
 13  9  1  0  0  0  0
 14  9  1  0  0  0  0
M  END
$$$$
