14
butane_opt
C  -3.963248   0.246929  -0.018755
C  -2.712662  -0.606656   0.054644
H  -4.906784  -0.370174   0.242674
H  -3.958253   1.090699  -1.017398
H  -3.851698   0.718398   0.719711
C  -1.404010   0.212940   0.071183
H  -2.688546  -1.259631  -0.775357
H  -2.763079  -1.217689   0.939899
C  -0.132790  -0.710947  -0.000976
H  -1.488369   0.870369   0.943375
H  -1.399967   0.824067  -0.802371
H  -0.054902  -1.204426   0.794318
H   0.737220  -0.171622  -0.008237
H  -0.097732  -1.458850  -0.909180
