butane_opt
 OpenBabel08242015413D

 14 13  0  0  0  0  0  0  0  0999 V2000
   -3.9495    0.2402    0.0339 C   0  0  0  0  0  0  0  0  0  0  0  0
   -2.7002   -0.5891    0.0035 C   0  0  0  0  0  0  0  0  0  0  0  0
   -4.9003   -0.3836   -0.0233 H   0  0  0  0  0  0  0  0  0  0  0  0
   -3.8963    0.8163   -0.8073 H   0  0  0  0  0  0  0  0  0  0  0  0
   -3.9278    1.0757    0.9934 H   0  0  0  0  0  0  0  0  0  0  0  0
   -1.4084    0.1835    0.0096 C   0  0  0  0  0  0  0  0  0  0  0  0
   -2.7051   -1.2067   -0.8689 H   0  0  0  0  0  0  0  0  0  0  0  0
   -2.6541   -1.2469    0.8991 H   0  0  0  0  0  0  0  0  0  0  0  0
   -0.1625   -0.7014    0.0528 C   0  0  0  0  0  0  0  0  0  0  0  0
   -1.4449    0.8475    0.8357 H   0  0  0  0  0  0  0  0  0  0  0  0
   -1.3554    0.8239   -0.9042 H   0  0  0  0  0  0  0  0  0  0  0  0
   -0.0045   -1.4799    1.0060 H   0  0  0  0  0  0  0  0  0  0  0  0
    0.7376   -0.1230   -0.1305 H   0  0  0  0  0  0  0  0  0  0  0  0
   -0.2178   -1.2012   -0.7275 H   0  0  0  0  0  0  0  0  0  0  0  0
  1  5  1  0  0  0  0
  2  6  1  0  0  0  0
  2  1  1  0  0  0  0
  2  8  1  0  0  0  0
  3  1  1  0  0  0  0
  4  1  1  0  0  0  0
  6  9  1  0  0  0  0
  6 10  1  0  0  0  0
  7  2  1  0  0  0  0
  9 12  1  0  0  0  0
 11  6  1  0  0  0  0
 13  9  1  0  0  0  0
 14  9  1  0  0  0  0
M  END
$$$$
