14
butane_opt
C  -3.949461   0.240224   0.033936
C  -2.700154  -0.589114   0.003516
H  -4.900348  -0.383600  -0.023254
H  -3.896281   0.816259  -0.807255
H  -3.927791   1.075676   0.993444
C  -1.408368   0.183507   0.009587
H  -2.705084  -1.206712  -0.868882
H  -2.654082  -1.246856   0.899122
C  -0.162458  -0.701401   0.052791
H  -1.444857   0.847502   0.835737
H  -1.355449   0.823865  -0.904197
H  -0.004496  -1.479891   1.006022
H   0.737591  -0.123021  -0.130468
H  -0.217804  -1.201152  -0.727527
