14
butane_opt
C  -3.934531   0.254920  -0.020368
C  -2.704798  -0.607629   0.111705
H  -4.915593  -0.394225  -0.147194
H  -3.844815   0.758183  -0.880639
H  -4.039823   0.979363   0.887990
C  -1.412821   0.219177   0.026849
H  -2.680981  -1.273186  -0.762711
H  -2.792063  -1.254759   1.054070
C  -0.150495  -0.708774  -0.007307
H  -1.410863   0.869733   0.825524
H  -1.456675   0.801451  -0.860806
H  -0.052646  -1.261790   0.848211
H   0.678327  -0.148083   0.085077
H  -0.068614  -1.459073  -0.930778
