14
butane_opt
C  -3.947306   0.253016  -0.029434
C  -2.706642  -0.627833   0.065994
H  -4.829496  -0.260284  -0.025321
H  -3.935765   1.055024  -1.023025
H  -4.037985   0.901485   0.805170
C  -1.407590   0.178379   0.091100
H  -2.688808  -1.233148  -0.709810
H  -2.745554  -1.299464   0.986071
C  -0.148892  -0.683984  -0.020348
H  -1.338762   0.986187   1.000967
H  -1.504037   0.678167  -0.709719
H   0.008816  -1.375908   0.927825
H   0.769546  -0.103929  -0.269384
H  -0.205111  -1.243115  -0.835887
