14
butane_opt
C  -3.933739   0.275879   0.046985
C  -2.707950  -0.615644  -0.002585
H  -4.835110  -0.319979   0.237146
H  -4.083443   1.031057  -0.934497
H  -3.811280   0.768346   0.819209
C  -1.410396   0.153859   0.003024
H  -2.670259  -1.359117  -0.900202
H  -2.708759  -1.165707   0.840125
C  -0.157667  -0.686849   0.060334
H  -1.396118   0.862071   0.844366
H  -1.378960   0.886005  -0.962278
H  -0.232986  -1.236234   0.934920
H   0.806774  -0.094635   0.088507
H  -0.197178  -1.369353  -0.836556
