14
butane_opt
C  -3.947000   0.245236   0.029222
C  -2.712353  -0.605959   0.014647
H  -4.828076  -0.282884   0.055782
H  -3.910033   0.760628  -0.793880
H  -3.919553   0.992215   0.941503
C  -1.424061   0.221580  -0.000933
H  -2.755310  -1.366889  -0.874641
H  -2.728334  -1.191211   0.862642
C  -0.135662  -0.712245   0.044317
H  -1.375746   0.909106   0.823090
H  -1.413383   0.766974  -0.854468
H  -0.084402  -1.521637   1.044712
H   0.728398  -0.144764  -0.124377
H  -0.111183  -1.166792  -0.650670
