butane_opt
 OpenBabel08242015413D

 14 13  0  0  0  0  0  0  0  0999 V2000
   -3.9347    0.2550   -0.0118 C   0  0  0  0  0  0  0  0  0  0  0  0
   -2.6752   -0.6121    0.0739 C   0  0  0  0  0  0  0  0  0  0  0  0
   -4.8614   -0.3859   -0.1356 H   0  0  0  0  0  0  0  0  0  0  0  0
   -3.8643    0.8609   -0.8952 H   0  0  0  0  0  0  0  0  0  0  0  0
   -3.9644    0.8866    0.8340 H   0  0  0  0  0  0  0  0  0  0  0  0
   -1.4182    0.1986    0.0486 C   0  0  0  0  0  0  0  0  0  0  0  0
   -2.6920   -1.2457   -0.7888 H   0  0  0  0  0  0  0  0  0  0  0  0
   -2.7234   -1.2332    0.9543 H   0  0  0  0  0  0  0  0  0  0  0  0
   -0.1736   -0.6998    0.0012 C   0  0  0  0  0  0  0  0  0  0  0  0
   -1.3575    1.0173    1.0034 H   0  0  0  0  0  0  0  0  0  0  0  0
   -1.4737    0.7896   -0.8012 H   0  0  0  0  0  0  0  0  0  0  0  0
   -0.0530   -1.4439    0.9700 H   0  0  0  0  0  0  0  0  0  0  0  0
    0.6880   -0.1720   -0.2170 H   0  0  0  0  0  0  0  0  0  0  0  0
   -0.2905   -1.2625   -0.8194 H   0  0  0  0  0  0  0  0  0  0  0  0
  1  2  1  0  0  0  0
  1  5  1  0  0  0  0
  2  8  1  0  0  0  0
  3  1  1  0  0  0  0
  4  1  1  0  0  0  0
  6  2  1  0  0  0  0
  6 10  1  0  0  0  0
  7  2  1  0  0  0  0
  9  6  1  0  0  0  0
  9 12  1  0  0  0  0
 11  6  1  0  0  0  0
 13  9  1  0  0  0  0
 14  9  1  0  0  0  0
M  END
$$$$
