butane_opt
 OpenBabel08242015413D

 14 13  0  0  0  0  0  0  0  0999 V2000
   -3.9162    0.2496   -0.0373 C   0  0  0  0  0  0  0  0  0  0  0  0
   -2.7222   -0.5981    0.1100 C   0  0  0  0  0  0  0  0  0  0  0  0
   -4.8289   -0.3480   -0.1913 H   0  0  0  0  0  0  0  0  0  0  0  0
   -3.7816    0.7405   -0.8768 H   0  0  0  0  0  0  0  0  0  0  0  0
   -3.9631    0.9889    0.8695 H   0  0  0  0  0  0  0  0  0  0  0  0
   -1.4102    0.2162    0.0573 C   0  0  0  0  0  0  0  0  0  0  0  0
   -2.7240   -1.2438   -0.7406 H   0  0  0  0  0  0  0  0  0  0  0  0
   -2.7596   -1.2486    1.0457 H   0  0  0  0  0  0  0  0  0  0  0  0
   -0.1593   -0.7167   -0.0120 C   0  0  0  0  0  0  0  0  0  0  0  0
   -1.4306    0.8196    0.8706 H   0  0  0  0  0  0  0  0  0  0  0  0
   -1.4968    0.8689   -0.8184 H   0  0  0  0  0  0  0  0  0  0  0  0
    0.0123   -1.2815    0.8467 H   0  0  0  0  0  0  0  0  0  0  0  0
    0.7311   -0.1896   -0.0691 H   0  0  0  0  0  0  0  0  0  0  0  0
   -0.2847   -1.3952   -0.9031 H   0  0  0  0  0  0  0  0  0  0  0  0
  1  2  1  0  0  0  0
  1  5  1  0  0  0  0
  2  8  1  0  0  0  0
  3  1  1  0  0  0  0
  4  1  1  0  0  0  0
  6  2  1  0  0  0  0
  6 10  1  0  0  0  0
  7  2  1  0  0  0  0
  9  6  1  0  0  0  0
  9 12  1  0  0  0  0
 11  6  1  0  0  0  0
 13  9  1  0  0  0  0
 14  9  1  0  0  0  0
M  END
$$$$
