14
butane_opt
C  -3.916193   0.249639  -0.037322
C  -2.722249  -0.598099   0.109974
H  -4.828930  -0.348011  -0.191296
H  -3.781618   0.740531  -0.876815
H  -3.963059   0.988907   0.869535
C  -1.410206   0.216190   0.057302
H  -2.723958  -1.243775  -0.740611
H  -2.759626  -1.248649   1.045681
C  -0.159262  -0.716736  -0.011974
H  -1.430635   0.819596   0.870621
H  -1.496766   0.868855  -0.818365
H   0.012329  -1.281492   0.846747
H   0.731076  -0.189597  -0.069053
H  -0.284737  -1.395201  -0.903111
