butane_opt
 OpenBabel08242015413D

 14 13  0  0  0  0  0  0  0  0999 V2000
   -3.9702    0.2373    0.0579 C   0  0  0  0  0  0  0  0  0  0  0  0
   -2.7135   -0.5922   -0.0169 C   0  0  0  0  0  0  0  0  0  0  0  0
   -4.8986   -0.3807    0.2105 H   0  0  0  0  0  0  0  0  0  0  0  0
   -4.0718    0.9072   -0.8811 H   0  0  0  0  0  0  0  0  0  0  0  0
   -3.8583    0.8993    0.9135 H   0  0  0  0  0  0  0  0  0  0  0  0
   -1.4068    0.2043   -0.0254 C   0  0  0  0  0  0  0  0  0  0  0  0
   -2.7412   -1.2517   -0.8873 H   0  0  0  0  0  0  0  0  0  0  0  0
   -2.6413   -1.2040    0.8184 H   0  0  0  0  0  0  0  0  0  0  0  0
   -0.1269   -0.7063    0.0650 C   0  0  0  0  0  0  0  0  0  0  0  0
   -1.3697    0.9401    0.8432 H   0  0  0  0  0  0  0  0  0  0  0  0
   -1.3618    0.8603   -0.9052 H   0  0  0  0  0  0  0  0  0  0  0  0
   -0.2230   -1.4250    1.0244 H   0  0  0  0  0  0  0  0  0  0  0  0
    0.7545   -0.1576    0.0661 H   0  0  0  0  0  0  0  0  0  0  0  0
    0.0164   -1.3908   -0.7331 H   0  0  0  0  0  0  0  0  0  0  0  0
  1  3  1  0  0  0  0
  1  5  1  0  0  0  0
  2  1  1  0  0  0  0
  2  8  1  0  0  0  0
  4  1  1  0  0  0  0
  6  2  1  0  0  0  0
  6  9  1  0  0  0  0
  6 10  1  0  0  0  0
  7  2  1  0  0  0  0
  9 13  1  0  0  0  0
  9 12  1  0  0  0  0
 11  6  1  0  0  0  0
 14  9  1  0  0  0  0
M  END
$$$$
