14
butane_opt
C  -3.936910   0.270095   0.085557
C  -2.690224  -0.632234  -0.039752
H  -4.801957  -0.308025   0.210644
H  -4.120603   0.965928  -0.849402
H  -3.817748   0.934621   0.907899
C  -1.415597   0.160092  -0.038189
H  -2.678507  -1.385313  -0.974550
H  -2.642373  -1.160825   0.800066
C  -0.172076  -0.669660   0.093478
H  -1.467984   0.756677   0.768869
H  -1.302892   0.902151  -1.002252
H  -0.217704  -1.304407   0.986880
H   0.716471  -0.118480   0.096656
H  -0.113145  -1.290057  -0.722774
