butane_opt
 OpenBabel08242015413D

 14 13  0  0  0  0  0  0  0  0999 V2000
   -3.9337    0.2759    0.0470 C   0  0  0  0  0  0  0  0  0  0  0  0
   -2.7079   -0.6156   -0.0026 C   0  0  0  0  0  0  0  0  0  0  0  0
   -4.8351   -0.3200    0.2371 H   0  0  0  0  0  0  0  0  0  0  0  0
   -4.0834    1.0311   -0.9345 H   0  0  0  0  0  0  0  0  0  0  0  0
   -3.8113    0.7683    0.8192 H   0  0  0  0  0  0  0  0  0  0  0  0
   -1.4104    0.1539    0.0030 C   0  0  0  0  0  0  0  0  0  0  0  0
   -2.6703   -1.3591   -0.9002 H   0  0  0  0  0  0  0  0  0  0  0  0
   -2.7088   -1.1657    0.8401 H   0  0  0  0  0  0  0  0  0  0  0  0
   -0.1577   -0.6868    0.0603 C   0  0  0  0  0  0  0  0  0  0  0  0
   -1.3961    0.8621    0.8444 H   0  0  0  0  0  0  0  0  0  0  0  0
   -1.3790    0.8860   -0.9623 H   0  0  0  0  0  0  0  0  0  0  0  0
   -0.2330   -1.2362    0.9349 H   0  0  0  0  0  0  0  0  0  0  0  0
    0.8068   -0.0946    0.0885 H   0  0  0  0  0  0  0  0  0  0  0  0
   -0.1972   -1.3694   -0.8366 H   0  0  0  0  0  0  0  0  0  0  0  0
  1  3  1  0  0  0  0
  1  5  1  0  0  0  0
  2  6  1  0  0  0  0
  2  1  1  0  0  0  0
  2  8  1  0  0  0  0
  4  1  1  0  0  0  0
  6  9  1  0  0  0  0
  6 10  1  0  0  0  0
  7  2  1  0  0  0  0
  9 13  1  0  0  0  0
  9 12  1  0  0  0  0
 11  6  1  0  0  0  0
 14  9  1  0  0  0  0
M  END
$$$$
