14
butane_opt
C  -3.925508   0.296718  -0.042972
C  -2.699339  -0.644494   0.120413
H  -4.852163  -0.248126  -0.097248
H  -3.854623   0.792605  -0.876084
H  -4.096344   0.978098   0.796274
C  -1.394993   0.161335   0.052402
H  -2.660274  -1.271922  -0.673154
H  -2.757620  -1.326903   1.018613
C  -0.175526  -0.675149  -0.018700
H  -1.441517   0.831509   0.910136
H  -1.394120   0.774195  -0.803661
H  -0.137449  -1.179690   0.816555
H   0.775099  -0.048323  -0.023379
H  -0.277689  -1.430435  -0.965612
