butane_opt
 OpenBabel08242015413D

 14 13  0  0  0  0  0  0  0  0999 V2000
   -3.9711    0.2868   -0.0412 C   0  0  0  0  0  0  0  0  0  0  0  0
   -2.6814   -0.6402    0.0839 C   0  0  0  0  0  0  0  0  0  0  0  0
   -4.9489   -0.3364    0.0960 H   0  0  0  0  0  0  0  0  0  0  0  0
   -3.9508    1.0507   -1.0564 H   0  0  0  0  0  0  0  0  0  0  0  0
   -3.9842    0.8580    0.7743 H   0  0  0  0  0  0  0  0  0  0  0  0
   -1.3997    0.1644    0.0900 C   0  0  0  0  0  0  0  0  0  0  0  0
   -2.6698   -1.3321   -0.7545 H   0  0  0  0  0  0  0  0  0  0  0  0
   -2.7598   -1.2887    0.9474 H   0  0  0  0  0  0  0  0  0  0  0  0
   -0.1543   -0.6752   -0.0142 C   0  0  0  0  0  0  0  0  0  0  0  0
   -1.3200    0.8826    0.9788 H   0  0  0  0  0  0  0  0  0  0  0  0
   -1.4218    0.7613   -0.7857 H   0  0  0  0  0  0  0  0  0  0  0  0
    0.0457   -1.2485    0.8429 H   0  0  0  0  0  0  0  0  0  0  0  0
    0.7874   -0.0726   -0.1478 H   0  0  0  0  0  0  0  0  0  0  0  0
   -0.3336   -1.3597   -0.8814 H   0  0  0  0  0  0  0  0  0  0  0  0
  1  2  1  0  0  0  0
  1  3  1  0  0  0  0
  1  5  1  0  0  0  0
  2  6  1  0  0  0  0
  2  8  1  0  0  0  0
  4  1  1  0  0  0  0
  6 10  1  0  0  0  0
  7  2  1  0  0  0  0
  9  6  1  0  0  0  0
  9 12  1  0  0  0  0
 11  6  1  0  0  0  0
 13  9  1  0  0  0  0
 14  9  1  0  0  0  0
M  END
$$$$
