14
butane_opt
C  -3.912604   0.250831  -0.035267
C  -2.706905  -0.593268   0.086997
H  -4.784566  -0.337212  -0.060206
H  -3.916484   0.809002  -0.895383
H  -3.961583   0.918960   0.857642
C  -1.425272   0.202647   0.056276
H  -2.660793  -1.194769  -0.645374
H  -2.861340  -1.325108   1.078652
C  -0.170054  -0.711381  -0.025924
H  -1.402246   0.878791   0.915008
H  -1.432264   0.772548  -0.776359
H  -0.053297  -1.261370   0.835379
H   0.746987  -0.136128   0.053901
H  -0.125775  -1.373599  -0.905854
