butane_opt
 OpenBabel08242015413D

 14 13  0  0  0  0  0  0  0  0999 V2000
   -3.9490    0.2560    0.0602 C   0  0  0  0  0  0  0  0  0  0  0  0
   -2.7160   -0.6204   -0.0123 C   0  0  0  0  0  0  0  0  0  0  0  0
   -4.8405   -0.3614    0.0069 H   0  0  0  0  0  0  0  0  0  0  0  0
   -4.0065    0.8474   -0.7921 H   0  0  0  0  0  0  0  0  0  0  0  0
   -3.9547    1.0499    1.0093 H   0  0  0  0  0  0  0  0  0  0  0  0
   -1.3869    0.2137   -0.0191 C   0  0  0  0  0  0  0  0  0  0  0  0
   -2.7967   -1.3608   -0.9410 H   0  0  0  0  0  0  0  0  0  0  0  0
   -2.7443   -1.2045    0.8191 H   0  0  0  0  0  0  0  0  0  0  0  0
   -0.1507   -0.7155    0.0702 C   0  0  0  0  0  0  0  0  0  0  0  0
   -1.3736    0.8360    0.8259 H   0  0  0  0  0  0  0  0  0  0  0  0
   -1.4632    0.9207   -0.9765 H   0  0  0  0  0  0  0  0  0  0  0  0
   -0.1271   -1.4519    1.0882 H   0  0  0  0  0  0  0  0  0  0  0  0
    0.7806   -0.1030   -0.1028 H   0  0  0  0  0  0  0  0  0  0  0  0
   -0.0673   -1.2402   -0.6618 H   0  0  0  0  0  0  0  0  0  0  0  0
  1  5  1  0  0  0  0
  2  1  1  0  0  0  0
  2  8  1  0  0  0  0
  3  1  1  0  0  0  0
  4  1  1  0  0  0  0
  6  2  1  0  0  0  0
  6  9  1  0  0  0  0
  6 10  1  0  0  0  0
  7  2  1  0  0  0  0
  9 12  1  0  0  0  0
 11  6  1  0  0  0  0
 13  9  1  0  0  0  0
 14  9  1  0  0  0  0
M  END
$$$$
