14
butane_opt
C  -3.938953   0.260711  -0.006480
C  -2.704680  -0.607387   0.054285
H  -4.845946  -0.327185   0.101558
H  -4.015323   0.951823  -0.960880
H  -3.968877   0.833377   0.776465
C  -1.401486   0.195348   0.051925
H  -2.710317  -1.294212  -0.806904
H  -2.828347  -1.280234   0.979185
C  -0.149386  -0.702164   0.006852
H  -1.374024   0.877488   0.937443
H  -1.405966   0.807446  -0.828622
H  -0.091833  -1.287189   0.873917
H   0.718518  -0.114824  -0.040865
H  -0.162603  -1.394248  -0.880071
