butane_opt
 OpenBabel08242015413D

 14 13  0  0  0  0  0  0  0  0999 V2000
   -3.9046    0.2410   -0.0114 C   0  0  0  0  0  0  0  0  0  0  0  0
   -2.6929   -0.5954    0.1091 C   0  0  0  0  0  0  0  0  0  0  0  0
   -4.8328   -0.3516   -0.0473 H   0  0  0  0  0  0  0  0  0  0  0  0
   -3.8922    0.9965   -1.0449 H   0  0  0  0  0  0  0  0  0  0  0  0
   -4.0129    0.8012    0.7709 H   0  0  0  0  0  0  0  0  0  0  0  0
   -1.4413    0.1961    0.0442 C   0  0  0  0  0  0  0  0  0  0  0  0
   -2.6808   -1.2578   -0.7436 H   0  0  0  0  0  0  0  0  0  0  0  0
   -2.8097   -1.2258    0.9844 H   0  0  0  0  0  0  0  0  0  0  0  0
   -0.1721   -0.7046   -0.0205 C   0  0  0  0  0  0  0  0  0  0  0  0
   -1.3579    0.8927    0.9682 H   0  0  0  0  0  0  0  0  0  0  0  0
   -1.4630    0.8691   -0.8925 H   0  0  0  0  0  0  0  0  0  0  0  0
   -0.1731   -1.1594    0.7773 H   0  0  0  0  0  0  0  0  0  0  0  0
    0.7765   -0.1076    0.1583 H   0  0  0  0  0  0  0  0  0  0  0  0
   -0.0464   -1.5757   -0.9772 H   0  0  0  0  0  0  0  0  0  0  0  0
  1  2  1  0  0  0  0
  1  5  1  0  0  0  0
  2  8  1  0  0  0  0
  3  1  1  0  0  0  0
  4  1  1  0  0  0  0
  6  2  1  0  0  0  0
  6 10  1  0  0  0  0
  7  2  1  0  0  0  0
  9  6  1  0  0  0  0
  9 13  1  0  0  0  0
  9 12  1  0  0  0  0
 11  6  1  0  0  0  0
 14  9  1  0  0  0  0
M  END
$$$$
