14
butane_opt
C  -3.955917   0.281445   0.056083
C  -2.704008  -0.631271  -0.004542
H  -4.833093  -0.299503  -0.039183
H  -3.967676   0.758674  -0.713665
H  -4.025556   1.168842   1.051317
C  -1.394499   0.162206  -0.033064
H  -2.712068  -1.287459  -0.894818
H  -2.823583  -1.303322   0.930682
C  -0.157774  -0.677802   0.073169
H  -1.384201   0.783729   0.760230
H  -1.322846   0.813577  -0.967552
H  -0.149285  -1.413196   1.010042
H   0.818269  -0.045000  -0.025454
H  -0.092545  -1.248215  -0.730571
