14
butane_opt
C  -3.945566   0.256590   0.067192
C  -2.695992  -0.606714   0.025939
H  -4.861553  -0.361186  -0.200403
H  -3.844193   0.610057  -0.650514
H  -4.007773   1.094120   1.012924
C  -1.399848   0.214533  -0.062847
H  -2.767441  -1.369574  -0.923119
H  -2.754600  -1.159604   0.875587
C  -0.173239  -0.712110   0.077169
H  -1.405368   0.844419   0.753188
H  -1.385156   0.946895  -1.006636
H  -0.096046  -1.481120   1.014803
H   0.736812  -0.151206   0.033060
H  -0.065222  -1.282792  -0.715371
