14
butane_opt
C  -3.946661   0.235729   0.021871
C  -2.701199  -0.595615   0.026553
H  -4.893017  -0.385517   0.211601
H  -4.017079   1.115623  -1.036254
H  -3.952997   0.709373   0.741727
C  -1.408345   0.214436   0.038282
H  -2.738574  -1.299587  -0.852991
H  -2.682604  -1.215203   0.853062
C  -0.161022  -0.714787   0.031196
H  -1.347167   0.973349   0.945048
H  -1.389817   0.840100  -0.851599
H  -0.043937  -1.307883   0.920149
H   0.706525  -0.144434  -0.036077
H  -0.046509  -1.446405  -0.900187
