14
butane_opt
C  -3.929757   0.239397  -0.025258
C  -2.694440  -0.608739   0.105574
H  -4.812341  -0.321072  -0.149456
H  -3.836921   0.845989  -0.914806
H  -4.011946   0.998591   0.860453
C  -1.425757   0.217396   0.029807
H  -2.693257  -1.224895  -0.720994
H  -2.744374  -1.292075   1.089659
C  -0.161432  -0.710267  -0.009539
H  -1.404813   0.947206   0.927857
H  -1.411895   0.745437  -0.775269
H  -0.148678  -1.266644   0.840993
H   0.737375  -0.122837  -0.037996
H  -0.148823  -1.441602  -0.901841
