butane_opt
 OpenBabel08242015413D

 14 13  0  0  0  0  0  0  0  0999 V2000
   -3.9296    0.2458   -0.0428 C   0  0  0  0  0  0  0  0  0  0  0  0
   -2.6854   -0.6036    0.1143 C   0  0  0  0  0  0  0  0  0  0  0  0
   -4.8633   -0.3541   -0.1377 H   0  0  0  0  0  0  0  0  0  0  0  0
   -3.9277    0.8466   -0.9668 H   0  0  0  0  0  0  0  0  0  0  0  0
   -4.0215    0.9618    0.8742 H   0  0  0  0  0  0  0  0  0  0  0  0
   -1.4167    0.1921    0.0567 C   0  0  0  0  0  0  0  0  0  0  0  0
   -2.6285   -1.1692   -0.6692 H   0  0  0  0  0  0  0  0  0  0  0  0
   -2.8579   -1.2653    1.0594 H   0  0  0  0  0  0  0  0  0  0  0  0
   -0.1551   -0.6977   -0.0167 C   0  0  0  0  0  0  0  0  0  0  0  0
   -1.3961    0.9085    0.9452 H   0  0  0  0  0  0  0  0  0  0  0  0
   -1.4889    0.7856   -0.7763 H   0  0  0  0  0  0  0  0  0  0  0  0
   -0.0752   -1.2591    0.7807 H   0  0  0  0  0  0  0  0  0  0  0  0
    0.7325   -0.1515   -0.0536 H   0  0  0  0  0  0  0  0  0  0  0  0
   -0.2370   -1.4244   -0.9536 H   0  0  0  0  0  0  0  0  0  0  0  0
  1  2  1  0  0  0  0
  1  5  1  0  0  0  0
  2  8  1  0  0  0  0
  3  1  1  0  0  0  0
  4  1  1  0  0  0  0
  6  2  1  0  0  0  0
  6 10  1  0  0  0  0
  7  2  1  0  0  0  0
  9  6  1  0  0  0  0
  9 12  1  0  0  0  0
 11  6  1  0  0  0  0
 13  9  1  0  0  0  0
 14  9  1  0  0  0  0
M  END
$$$$
