14
butane_opt
C  -3.939799   0.245804  -0.023416
C  -2.684915  -0.605557   0.108137
H  -4.841895  -0.372823  -0.194963
H  -3.796446   0.770853  -0.896036
H  -3.971409   0.946168   0.862853
C  -1.412850   0.215559   0.040646
H  -2.644194  -1.167923  -0.671302
H  -2.816479  -1.243292   1.053855
C  -0.175684  -0.716219  -0.022325
H  -1.365755   0.921383   0.935978
H  -1.477270   0.837806  -0.830022
H  -0.158956  -1.269123   0.828316
H   0.689694  -0.191975   0.045223
H  -0.075543  -1.396457  -0.929291
