14
butane_opt
C  -3.929630   0.245772  -0.042766
C  -2.685366  -0.603612   0.114272
H  -4.863262  -0.354095  -0.137727
H  -3.927747   0.846552  -0.966828
H  -4.021500   0.961763   0.874247
C  -1.416699   0.192076   0.056659
H  -2.628454  -1.169162  -0.669165
H  -2.857909  -1.265311   1.059376
C  -0.155118  -0.697742  -0.016662
H  -1.396131   0.908540   0.945236
H  -1.488855   0.785636  -0.776332
H  -0.075153  -1.259133   0.780734
H   0.732475  -0.151547  -0.053592
H  -0.237019  -1.424362  -0.953643
