14
butane_opt
C  -3.955853   0.260890   0.008819
C  -2.707089  -0.613305   0.026396
H  -4.871545  -0.344563   0.212197
H  -4.039712   1.007983  -0.985249
H  -3.916041   0.841953   0.801629
C  -1.400281   0.187824   0.030847
H  -2.728563  -1.269186  -0.798699
H  -2.674922  -1.285899   0.928034
C  -0.144302  -0.695942   0.024209
H  -1.403495   0.906667   0.929755
H  -1.374898   0.796650  -0.827775
H  -0.126987  -1.283844   0.915362
H   0.782764  -0.118756   0.042853
H  -0.174191  -1.393400  -0.877930
