14
butane_opt
C  -3.940321   0.254787   0.041358
C  -2.716001  -0.612412   0.002748
H  -4.830609  -0.385312   0.232474
H  -4.090028   0.950356  -0.882749
H  -3.882054   0.852624   0.876167
C  -1.409455   0.216609  -0.002501
H  -2.745323  -1.379355  -0.939013
H  -2.770255  -1.166345   0.826518
C  -0.143781  -0.702345   0.049971
H  -1.466868   0.817601   0.771852
H  -1.379930   0.862666  -0.866134
H  -0.040175  -1.393712   0.999092
H   0.730161  -0.141920   0.082052
H  -0.034468  -1.360847  -0.754471
