14
butane_opt
C  -3.933088   0.259368   0.076984
C  -2.711390  -0.609476  -0.047551
H  -4.896980  -0.413212   0.264375
H  -4.085906   0.987252  -0.827922
H  -3.836196   0.846094   0.911229
C  -1.401601   0.211539  -0.024903
H  -2.809530  -1.395846  -0.973471
H  -2.694477  -1.135975   0.769972
C  -0.152798  -0.703572   0.092980
H  -1.407377   0.773662   0.729774
H  -1.434747   0.840627  -0.960478
H  -0.174674  -1.390344   1.072732
H   0.695498  -0.142251   0.012278
H   0.011054  -1.336576  -0.733509
