butane_opt
 OpenBabel08242015413D

 14 13  0  0  0  0  0  0  0  0999 V2000
   -3.9514    0.2726    0.0621 C   0  0  0  0  0  0  0  0  0  0  0  0
   -2.6858   -0.6294   -0.0146 C   0  0  0  0  0  0  0  0  0  0  0  0
   -4.8688   -0.3448    0.0839 H   0  0  0  0  0  0  0  0  0  0  0  0
   -3.9726    0.8682   -0.8136 H   0  0  0  0  0  0  0  0  0  0  0  0
   -3.9248    0.9884    0.9226 H   0  0  0  0  0  0  0  0  0  0  0  0
   -1.3882    0.1758   -0.0308 C   0  0  0  0  0  0  0  0  0  0  0  0
   -2.7650   -1.3050   -0.8470 H   0  0  0  0  0  0  0  0  0  0  0  0
   -2.6493   -1.1541    0.8218 H   0  0  0  0  0  0  0  0  0  0  0  0
   -0.1789   -0.6854    0.0585 C   0  0  0  0  0  0  0  0  0  0  0  0
   -1.4429    0.9227    0.8456 H   0  0  0  0  0  0  0  0  0  0  0  0
   -1.2962    0.7684   -0.8742 H   0  0  0  0  0  0  0  0  0  0  0  0
   -0.2026   -1.4834    1.0947 H   0  0  0  0  0  0  0  0  0  0  0  0
    0.7322   -0.1248   -0.0173 H   0  0  0  0  0  0  0  0  0  0  0  0
   -0.1785   -1.2169   -0.6660 H   0  0  0  0  0  0  0  0  0  0  0  0
  1  3  1  0  0  0  0
  1  5  1  0  0  0  0
  2  1  1  0  0  0  0
  2  8  1  0  0  0  0
  4  1  1  0  0  0  0
  6  2  1  0  0  0  0
  6  9  1  0  0  0  0
  6 10  1  0  0  0  0
  7  2  1  0  0  0  0
  9 12  1  0  0  0  0
 11  6  1  0  0  0  0
 13  9  1  0  0  0  0
 14  9  1  0  0  0  0
M  END
$$$$
