butane_opt
 OpenBabel08242015413D

 14 13  0  0  0  0  0  0  0  0999 V2000
   -3.9510    0.2788    0.0132 C   0  0  0  0  0  0  0  0  0  0  0  0
   -2.6635   -0.6273    0.0506 C   0  0  0  0  0  0  0  0  0  0  0  0
   -4.8555   -0.3200   -0.1641 H   0  0  0  0  0  0  0  0  0  0  0  0
   -3.8782    0.7070   -0.7498 H   0  0  0  0  0  0  0  0  0  0  0  0
   -4.1162    1.1529    0.9767 H   0  0  0  0  0  0  0  0  0  0  0  0
   -1.3995    0.1532    0.0114 C   0  0  0  0  0  0  0  0  0  0  0  0
   -2.7473   -1.3049   -0.7820 H   0  0  0  0  0  0  0  0  0  0  0  0
   -2.6604   -1.2256    0.9462 H   0  0  0  0  0  0  0  0  0  0  0  0
   -0.1799   -0.6817    0.0314 C   0  0  0  0  0  0  0  0  0  0  0  0
   -1.4240    0.7178    0.7805 H   0  0  0  0  0  0  0  0  0  0  0  0
   -1.4051    0.8608   -0.9436 H   0  0  0  0  0  0  0  0  0  0  0  0
   -0.1350   -1.2774    0.9592 H   0  0  0  0  0  0  0  0  0  0  0  0
    0.7673   -0.0121   -0.0678 H   0  0  0  0  0  0  0  0  0  0  0  0
   -0.2452   -1.2455   -0.7713 H   0  0  0  0  0  0  0  0  0  0  0  0
  1  2  1  0  0  0  0
  1  5  1  0  0  0  0
  2  8  1  0  0  0  0
  3  1  1  0  0  0  0
  4  1  1  0  0  0  0
  6  9  1  0  0  0  0
  6  2  1  0  0  0  0
  6 10  1  0  0  0  0
  7  2  1  0  0  0  0
  9 12  1  0  0  0  0
 11  6  1  0  0  0  0
 13  9  1  0  0  0  0
 14  9  1  0  0  0  0
M  END
$$$$
