butane_opt
 OpenBabel08242015413D

 14 13  0  0  0  0  0  0  0  0999 V2000
   -3.9474    0.2687   -0.0384 C   0  0  0  0  0  0  0  0  0  0  0  0
   -2.6961   -0.6405    0.1036 C   0  0  0  0  0  0  0  0  0  0  0  0
   -4.8112   -0.2706   -0.1614 H   0  0  0  0  0  0  0  0  0  0  0  0
   -3.8989    0.8619   -0.9487 H   0  0  0  0  0  0  0  0  0  0  0  0
   -4.0912    1.0276    0.8587 H   0  0  0  0  0  0  0  0  0  0  0  0
   -1.4124    0.1739    0.0833 C   0  0  0  0  0  0  0  0  0  0  0  0
   -2.6391   -1.1972   -0.7117 H   0  0  0  0  0  0  0  0  0  0  0  0
   -2.8060   -1.3012    1.0458 H   0  0  0  0  0  0  0  0  0  0  0  0
   -0.1483   -0.6810   -0.0227 C   0  0  0  0  0  0  0  0  0  0  0  0
   -1.2732    0.8177    0.8945 H   0  0  0  0  0  0  0  0  0  0  0  0
   -1.4693    0.8059   -0.8229 H   0  0  0  0  0  0  0  0  0  0  0  0
   -0.0742   -1.2207    0.8422 H   0  0  0  0  0  0  0  0  0  0  0  0
    0.7072   -0.1164   -0.1213 H   0  0  0  0  0  0  0  0  0  0  0  0
   -0.2146   -1.3401   -0.9328 H   0  0  0  0  0  0  0  0  0  0  0  0
  1  2  1  0  0  0  0
  1  5  1  0  0  0  0
  2  8  1  0  0  0  0
  3  1  1  0  0  0  0
  4  1  1  0  0  0  0
  6  2  1  0  0  0  0
  6 10  1  0  0  0  0
  7  2  1  0  0  0  0
  9  6  1  0  0  0  0
  9 12  1  0  0  0  0
 11  6  1  0  0  0  0
 13  9  1  0  0  0  0
 14  9  1  0  0  0  0
M  END
$$$$
