14
butane_opt
C  -3.950953   0.278774   0.013218
C  -2.663494  -0.627294   0.050560
H  -4.855481  -0.319997  -0.164064
H  -3.878161   0.706995  -0.749761
H  -4.116238   1.152940   0.976749
C  -1.399530   0.153248   0.011384
H  -2.747341  -1.304914  -0.781952
H  -2.660430  -1.225619   0.946186
C  -0.179929  -0.681746   0.031439
H  -1.424039   0.717765   0.780535
H  -1.405129   0.860778  -0.943569
H  -0.134961  -1.277394   0.959207
H   0.767301  -0.012136  -0.067790
H  -0.245151  -1.245491  -0.771256
