butane_opt
 OpenBabel08242015413D

 14 13  0  0  0  0  0  0  0  0999 V2000
   -3.9403    0.2548    0.0414 C   0  0  0  0  0  0  0  0  0  0  0  0
   -2.7160   -0.6124    0.0027 C   0  0  0  0  0  0  0  0  0  0  0  0
   -4.8306   -0.3853    0.2325 H   0  0  0  0  0  0  0  0  0  0  0  0
   -4.0900    0.9504   -0.8827 H   0  0  0  0  0  0  0  0  0  0  0  0
   -3.8821    0.8526    0.8762 H   0  0  0  0  0  0  0  0  0  0  0  0
   -1.4095    0.2166   -0.0025 C   0  0  0  0  0  0  0  0  0  0  0  0
   -2.7453   -1.3794   -0.9390 H   0  0  0  0  0  0  0  0  0  0  0  0
   -2.7703   -1.1663    0.8265 H   0  0  0  0  0  0  0  0  0  0  0  0
   -0.1438   -0.7023    0.0500 C   0  0  0  0  0  0  0  0  0  0  0  0
   -1.4669    0.8176    0.7719 H   0  0  0  0  0  0  0  0  0  0  0  0
   -1.3799    0.8627   -0.8661 H   0  0  0  0  0  0  0  0  0  0  0  0
   -0.0402   -1.3937    0.9991 H   0  0  0  0  0  0  0  0  0  0  0  0
    0.7302   -0.1419    0.0821 H   0  0  0  0  0  0  0  0  0  0  0  0
   -0.0345   -1.3608   -0.7545 H   0  0  0  0  0  0  0  0  0  0  0  0
  1  3  1  0  0  0  0
  1  5  1  0  0  0  0
  2  1  1  0  0  0  0
  2  8  1  0  0  0  0
  4  1  1  0  0  0  0
  6  2  1  0  0  0  0
  6  9  1  0  0  0  0
  6 10  1  0  0  0  0
  7  2  1  0  0  0  0
  9 13  1  0  0  0  0
  9 12  1  0  0  0  0
 11  6  1  0  0  0  0
 14  9  1  0  0  0  0
M  END
$$$$
