butane_opt
 OpenBabel08242015413D

 14 13  0  0  0  0  0  0  0  0999 V2000
   -3.9242    0.2399    0.0284 C   0  0  0  0  0  0  0  0  0  0  0  0
   -2.6962   -0.5771    0.0441 C   0  0  0  0  0  0  0  0  0  0  0  0
   -4.9255   -0.3845   -0.1848 H   0  0  0  0  0  0  0  0  0  0  0  0
   -3.9278    0.6283   -0.7365 H   0  0  0  0  0  0  0  0  0  0  0  0
   -3.9346    1.0914    1.0201 H   0  0  0  0  0  0  0  0  0  0  0  0
   -1.4103    0.1902   -0.0201 C   0  0  0  0  0  0  0  0  0  0  0  0
   -2.7041   -1.2423   -0.7880 H   0  0  0  0  0  0  0  0  0  0  0  0
   -2.7160   -1.1590    0.9217 H   0  0  0  0  0  0  0  0  0  0  0  0
   -0.1726   -0.7065    0.0475 C   0  0  0  0  0  0  0  0  0  0  0  0
   -1.4821    0.8576    0.7717 H   0  0  0  0  0  0  0  0  0  0  0  0
   -1.4362    0.8584   -0.9275 H   0  0  0  0  0  0  0  0  0  0  0  0
   -0.1103   -1.4766    1.0105 H   0  0  0  0  0  0  0  0  0  0  0  0
    0.7569   -0.0977   -0.0317 H   0  0  0  0  0  0  0  0  0  0  0  0
   -0.0984   -1.3253   -0.7903 H   0  0  0  0  0  0  0  0  0  0  0  0
  1  2  1  0  0  0  0
  1  5  1  0  0  0  0
  2  8  1  0  0  0  0
  3  1  1  0  0  0  0
  4  1  1  0  0  0  0
  6  2  1  0  0  0  0
  6  9  1  0  0  0  0
  6 10  1  0  0  0  0
  7  2  1  0  0  0  0
  9 12  1  0  0  0  0
 11  6  1  0  0  0  0
 13  9  1  0  0  0  0
 14  9  1  0  0  0  0
M  END
$$$$
