14
butane_opt
C  -3.961283   0.291628  -0.002173
C  -2.701239  -0.629993   0.066367
H  -4.850028  -0.299010   0.150760
H  -4.052054   1.122638  -1.032404
H  -3.944070   0.762154   0.711144
C  -1.384463   0.147946   0.046426
H  -2.775340  -1.412297  -0.868653
H  -2.730874  -1.240084   0.944478
C  -0.163287  -0.673550   0.008020
H  -1.393011   0.929265   0.907108
H  -1.365404   0.705768  -0.806570
H  -0.095855  -1.237843   0.840818
H   0.834959  -0.041714   0.015579
H  -0.149649  -1.367190  -0.877424
