butane_opt
 OpenBabel08242015413D

 14 13  0  0  0  0  0  0  0  0999 V2000
   -3.9626    0.2805    0.0029 C   0  0  0  0  0  0  0  0  0  0  0  0
   -2.6853   -0.6284    0.0783 C   0  0  0  0  0  0  0  0  0  0  0  0
   -4.8337   -0.3065   -0.1147 H   0  0  0  0  0  0  0  0  0  0  0  0
   -3.8722    0.8315   -0.8868 H   0  0  0  0  0  0  0  0  0  0  0  0
   -4.1976    1.0249    0.8872 H   0  0  0  0  0  0  0  0  0  0  0  0
   -1.3946    0.1517    0.0233 C   0  0  0  0  0  0  0  0  0  0  0  0
   -2.7436   -1.2855   -0.7739 H   0  0  0  0  0  0  0  0  0  0  0  0
   -2.7334   -1.2584    0.9532 H   0  0  0  0  0  0  0  0  0  0  0  0
   -0.1566   -0.6835    0.0132 C   0  0  0  0  0  0  0  0  0  0  0  0
   -1.3321    0.8063    0.8591 H   0  0  0  0  0  0  0  0  0  0  0  0
   -1.4426    0.8423   -0.8757 H   0  0  0  0  0  0  0  0  0  0  0  0
   -0.1316   -1.2049    0.8298 H   0  0  0  0  0  0  0  0  0  0  0  0
    0.8127   -0.0381   -0.0014 H   0  0  0  0  0  0  0  0  0  0  0  0
   -0.1628   -1.3188   -0.8351 H   0  0  0  0  0  0  0  0  0  0  0  0
  1  2  1  0  0  0  0
  1  5  1  0  0  0  0
  2  8  1  0  0  0  0
  3  1  1  0  0  0  0
  4  1  1  0  0  0  0
  6  2  1  0  0  0  0
  6 10  1  0  0  0  0
  7  2  1  0  0  0  0
  9  6  1  0  0  0  0
  9 12  1  0  0  0  0
 11  6  1  0  0  0  0
 13  9  1  0  0  0  0
 14  9  1  0  0  0  0
M  END
$$$$
