butane_opt
 OpenBabel08242015413D

 14 13  0  0  0  0  0  0  0  0999 V2000
   -3.9445    0.2658    0.0217 C   0  0  0  0  0  0  0  0  0  0  0  0
   -2.6770   -0.5974    0.0411 C   0  0  0  0  0  0  0  0  0  0  0  0
   -4.9211   -0.3839   -0.1042 H   0  0  0  0  0  0  0  0  0  0  0  0
   -3.8175    0.6785   -0.7590 H   0  0  0  0  0  0  0  0  0  0  0  0
   -4.0124    1.0468    0.9512 H   0  0  0  0  0  0  0  0  0  0  0  0
   -1.4084    0.1914    0.0011 C   0  0  0  0  0  0  0  0  0  0  0  0
   -2.6893   -1.3301   -0.8063 H   0  0  0  0  0  0  0  0  0  0  0  0
   -2.7723   -1.2242    0.9102 H   0  0  0  0  0  0  0  0  0  0  0  0
   -0.1704   -0.7088    0.0517 C   0  0  0  0  0  0  0  0  0  0  0  0
   -1.4297    0.7671    0.7823 H   0  0  0  0  0  0  0  0  0  0  0  0
   -1.4134    0.8571   -0.9049 H   0  0  0  0  0  0  0  0  0  0  0  0
   -0.0494   -1.3593    0.9319 H   0  0  0  0  0  0  0  0  0  0  0  0
    0.7405   -0.0633   -0.1218 H   0  0  0  0  0  0  0  0  0  0  0  0
   -0.2545   -1.2735   -0.7930 H   0  0  0  0  0  0  0  0  0  0  0  0
  1  2  1  0  0  0  0
  1  5  1  0  0  0  0
  2  8  1  0  0  0  0
  3  1  1  0  0  0  0
  4  1  1  0  0  0  0
  6  2  1  0  0  0  0
  6  9  1  0  0  0  0
  6 10  1  0  0  0  0
  7  2  1  0  0  0  0
  9 12  1  0  0  0  0
 11  6  1  0  0  0  0
 13  9  1  0  0  0  0
 14  9  1  0  0  0  0
M  END
$$$$
