butane_opt
 OpenBabel08242015413D

 14 13  0  0  0  0  0  0  0  0999 V2000
   -3.9362    0.2510    0.0701 C   0  0  0  0  0  0  0  0  0  0  0  0
   -2.7261   -0.6053   -0.0333 C   0  0  0  0  0  0  0  0  0  0  0  0
   -4.9040   -0.3338   -0.0088 H   0  0  0  0  0  0  0  0  0  0  0  0
   -3.9632    0.8075   -0.7922 H   0  0  0  0  0  0  0  0  0  0  0  0
   -4.0159    0.9802    0.9606 H   0  0  0  0  0  0  0  0  0  0  0  0
   -1.4142    0.1996   -0.0174 C   0  0  0  0  0  0  0  0  0  0  0  0
   -2.7564   -1.3091   -0.8732 H   0  0  0  0  0  0  0  0  0  0  0  0
   -2.6483   -1.1477    0.8139 H   0  0  0  0  0  0  0  0  0  0  0  0
   -0.1333   -0.7038    0.0749 C   0  0  0  0  0  0  0  0  0  0  0  0
   -1.3999    0.9002    0.8732 H   0  0  0  0  0  0  0  0  0  0  0  0
   -1.3936    0.7593   -0.8976 H   0  0  0  0  0  0  0  0  0  0  0  0
   -0.0484   -1.5990    1.1427 H   0  0  0  0  0  0  0  0  0  0  0  0
    0.7699   -0.1156   -0.2392 H   0  0  0  0  0  0  0  0  0  0  0  0
   -0.1430   -1.1146   -0.6428 H   0  0  0  0  0  0  0  0  0  0  0  0
  1  5  1  0  0  0  0
  2  6  1  0  0  0  0
  2  1  1  0  0  0  0
  2  8  1  0  0  0  0
  3  1  1  0  0  0  0
  4  1  1  0  0  0  0
  6  9  1  0  0  0  0
  6 10  1  0  0  0  0
  7  2  1  0  0  0  0
  9 12  1  0  0  0  0
 11  6  1  0  0  0  0
 13  9  1  0  0  0  0
 14  9  1  0  0  0  0
M  END
$$$$
