14
butane_opt
C  -3.962592   0.280471   0.002855
C  -2.685319  -0.628390   0.078319
H  -4.833711  -0.306510  -0.114655
H  -3.872232   0.831542  -0.886783
H  -4.197636   1.024887   0.887191
C  -1.394644   0.151698   0.023274
H  -2.743580  -1.285509  -0.773903
H  -2.733416  -1.258415   0.953203
C  -0.156630  -0.683500   0.013220
H  -1.332112   0.806316   0.859142
H  -1.442627   0.842316  -0.875689
H  -0.131557  -1.204922   0.829846
H   0.812687  -0.038147  -0.001376
H  -0.162803  -1.318834  -0.835106
