14
butane_opt
C  -3.938926   0.276889   0.024991
C  -2.680413  -0.616566   0.025553
H  -4.850540  -0.350950   0.090937
H  -4.003351   1.010152  -0.970693
H  -3.932199   0.842189   0.833935
C  -1.421778   0.153599   0.019056
H  -2.714944  -1.303895  -0.858100
H  -2.645373  -1.293399   0.965153
C  -0.171355  -0.667944   0.021443
H  -1.418898   0.909604   0.951809
H  -1.320751   0.701085  -0.812660
H  -0.183534  -1.378066   0.946738
H   0.738462  -0.049161   0.009682
H  -0.147453  -1.299940  -0.828476
