14
butane_opt
C  -3.924956   0.250375   0.023681
C  -2.698714  -0.598662   0.020673
H  -4.931094  -0.396626  -0.094133
H  -3.855334   0.765602  -0.792259
H  -3.933561   1.000084   0.948850
C  -1.432671   0.193571   0.014945
H  -2.740310  -1.261484  -0.816875
H  -2.743189  -1.197145   0.955624
C  -0.138534  -0.703088   0.032168
H  -1.391424   0.939644   0.911893
H  -1.500706   0.844817  -0.886015
H  -0.170589  -1.530683   1.053179
H   0.736932  -0.115519  -0.187905
H  -0.148466  -1.247204  -0.730310
