14
butane_opt
C  -3.953433   0.273433   0.051159
C  -2.704138  -0.627353   0.010141
H  -4.822113  -0.288806  -0.059058
H  -3.969358   0.815304  -0.807760
H  -4.034645   1.046835   0.967184
C  -1.391752   0.166684  -0.024462
H  -2.762631  -1.281722  -0.801781
H  -2.672775  -1.229489   0.879636
C  -0.161679  -0.688000   0.060761
H  -1.358339   0.840058   0.814557
H  -1.386432   0.816313  -0.932265
H  -0.180624  -1.362584   0.977952
H   0.787599  -0.026476  -0.000009
H  -0.101717  -1.291599  -0.757720
