14
butane_opt
C  -3.924503   0.254243   0.072692
C  -2.704766  -0.599671  -0.013341
H  -4.884601  -0.420036   0.011822
H  -3.910270   0.732861  -0.759414
H  -3.991571   1.041218   1.032907
C  -1.433460   0.196134  -0.064457
H  -2.777569  -1.237494  -0.819296
H  -2.640465  -1.262663   0.875759
C  -0.158236  -0.706710   0.090756
H  -1.404601   0.857476   0.782855
H  -1.329933   0.927656  -1.011575
H  -0.169465  -1.328580   0.977731
H   0.765030  -0.127538   0.146802
H  -0.022000  -1.397084  -0.811991
