butane_opt
 OpenBabel08242015413D

 14 13  0  0  0  0  0  0  0  0999 V2000
   -3.9245    0.2542    0.0727 C   0  0  0  0  0  0  0  0  0  0  0  0
   -2.7048   -0.5997   -0.0133 C   0  0  0  0  0  0  0  0  0  0  0  0
   -4.8846   -0.4200    0.0118 H   0  0  0  0  0  0  0  0  0  0  0  0
   -3.9103    0.7329   -0.7594 H   0  0  0  0  0  0  0  0  0  0  0  0
   -3.9916    1.0412    1.0329 H   0  0  0  0  0  0  0  0  0  0  0  0
   -1.4335    0.1961   -0.0645 C   0  0  0  0  0  0  0  0  0  0  0  0
   -2.7776   -1.2375   -0.8193 H   0  0  0  0  0  0  0  0  0  0  0  0
   -2.6405   -1.2627    0.8758 H   0  0  0  0  0  0  0  0  0  0  0  0
   -0.1582   -0.7067    0.0908 C   0  0  0  0  0  0  0  0  0  0  0  0
   -1.4046    0.8575    0.7829 H   0  0  0  0  0  0  0  0  0  0  0  0
   -1.3299    0.9277   -1.0116 H   0  0  0  0  0  0  0  0  0  0  0  0
   -0.1695   -1.3286    0.9777 H   0  0  0  0  0  0  0  0  0  0  0  0
    0.7650   -0.1275    0.1468 H   0  0  0  0  0  0  0  0  0  0  0  0
   -0.0220   -1.3971   -0.8120 H   0  0  0  0  0  0  0  0  0  0  0  0
  1  5  1  0  0  0  0
  2  1  1  0  0  0  0
  2  8  1  0  0  0  0
  3  1  1  0  0  0  0
  4  1  1  0  0  0  0
  6  2  1  0  0  0  0
  6  9  1  0  0  0  0
  6 10  1  0  0  0  0
  7  2  1  0  0  0  0
  9 13  1  0  0  0  0
  9 12  1  0  0  0  0
 11  6  1  0  0  0  0
 14  9  1  0  0  0  0
M  END
$$$$
