butane_opt
 OpenBabel08242015413D

 14 13  0  0  0  0  0  0  0  0999 V2000
   -3.9630    0.2505    0.0648 C   0  0  0  0  0  0  0  0  0  0  0  0
   -2.7101   -0.6054   -0.0200 C   0  0  0  0  0  0  0  0  0  0  0  0
   -4.8499   -0.3125    0.2369 H   0  0  0  0  0  0  0  0  0  0  0  0
   -4.0327    0.9081   -0.8278 H   0  0  0  0  0  0  0  0  0  0  0  0
   -3.8480    0.8861    0.9503 H   0  0  0  0  0  0  0  0  0  0  0  0
   -1.4118    0.1978   -0.0442 C   0  0  0  0  0  0  0  0  0  0  0  0
   -2.8025   -1.3994   -0.9471 H   0  0  0  0  0  0  0  0  0  0  0  0
   -2.6455   -1.0877    0.7552 H   0  0  0  0  0  0  0  0  0  0  0  0
   -0.1276   -0.7123    0.0866 C   0  0  0  0  0  0  0  0  0  0  0  0
   -1.4176    0.8354    0.7761 H   0  0  0  0  0  0  0  0  0  0  0  0
   -1.3588    0.8852   -0.9332 H   0  0  0  0  0  0  0  0  0  0  0  0
   -0.2321   -1.3571    0.9754 H   0  0  0  0  0  0  0  0  0  0  0  0
    0.7999   -0.1129    0.0589 H   0  0  0  0  0  0  0  0  0  0  0  0
   -0.0765   -1.2784   -0.6507 H   0  0  0  0  0  0  0  0  0  0  0  0
  1  3  1  0  0  0  0
  1  5  1  0  0  0  0
  2  1  1  0  0  0  0
  2  8  1  0  0  0  0
  4  1  1  0  0  0  0
  6  2  1  0  0  0  0
  6  9  1  0  0  0  0
  6 10  1  0  0  0  0
  7  2  1  0  0  0  0
  9 12  1  0  0  0  0
 11  6  1  0  0  0  0
 13  9  1  0  0  0  0
 14  9  1  0  0  0  0
M  END
$$$$
