butane_opt
 OpenBabel08242015413D

 14 13  0  0  0  0  0  0  0  0999 V2000
   -3.9250    0.2504    0.0237 C   0  0  0  0  0  0  0  0  0  0  0  0
   -2.6987   -0.5987    0.0207 C   0  0  0  0  0  0  0  0  0  0  0  0
   -4.9311   -0.3966   -0.0941 H   0  0  0  0  0  0  0  0  0  0  0  0
   -3.8553    0.7656   -0.7923 H   0  0  0  0  0  0  0  0  0  0  0  0
   -3.9336    1.0001    0.9488 H   0  0  0  0  0  0  0  0  0  0  0  0
   -1.4327    0.1936    0.0149 C   0  0  0  0  0  0  0  0  0  0  0  0
   -2.7403   -1.2615   -0.8169 H   0  0  0  0  0  0  0  0  0  0  0  0
   -2.7432   -1.1971    0.9556 H   0  0  0  0  0  0  0  0  0  0  0  0
   -0.1385   -0.7031    0.0322 C   0  0  0  0  0  0  0  0  0  0  0  0
   -1.3914    0.9396    0.9119 H   0  0  0  0  0  0  0  0  0  0  0  0
   -1.5007    0.8448   -0.8860 H   0  0  0  0  0  0  0  0  0  0  0  0
   -0.1706   -1.5307    1.0532 H   0  0  0  0  0  0  0  0  0  0  0  0
    0.7369   -0.1155   -0.1879 H   0  0  0  0  0  0  0  0  0  0  0  0
   -0.1485   -1.2472   -0.7303 H   0  0  0  0  0  0  0  0  0  0  0  0
  1  5  1  0  0  0  0
  2  1  1  0  0  0  0
  2  8  1  0  0  0  0
  3  1  1  0  0  0  0
  4  1  1  0  0  0  0
  6  2  1  0  0  0  0
  6  9  1  0  0  0  0
  6 10  1  0  0  0  0
  7  2  1  0  0  0  0
  9 12  1  0  0  0  0
 11  6  1  0  0  0  0
 13  9  1  0  0  0  0
 14  9  1  0  0  0  0
M  END
$$$$
