14
butane_opt
C  -3.937818   0.271557   0.037843
C  -2.690259  -0.620322   0.001352
H  -4.847790  -0.320752   0.199507
H  -4.039215   0.994716  -0.919472
H  -3.910001   0.852055   0.864469
C  -1.406572   0.160623   0.000363
H  -2.734784  -1.299446  -0.858008
H  -2.676193  -1.239530   0.890183
C  -0.170201  -0.682735   0.045162
H  -1.467065   0.899797   0.872015
H  -1.353949   0.784052  -0.870323
H  -0.174760  -1.308493   0.978134
H   0.770465  -0.050916   0.059850
H  -0.137976  -1.328376  -0.806120
