butane_opt
 OpenBabel08242015413D

 14 13  0  0  0  0  0  0  0  0999 V2000
   -3.9357    0.2605    0.0589 C   0  0  0  0  0  0  0  0  0  0  0  0
   -2.7093   -0.5873   -0.0278 C   0  0  0  0  0  0  0  0  0  0  0  0
   -4.9184   -0.4132    0.0516 H   0  0  0  0  0  0  0  0  0  0  0  0
   -3.9537    0.7208   -0.7763 H   0  0  0  0  0  0  0  0  0  0  0  0
   -3.8385    0.9772    1.0041 H   0  0  0  0  0  0  0  0  0  0  0  0
   -1.4196    0.1991   -0.0239 C   0  0  0  0  0  0  0  0  0  0  0  0
   -2.7497   -1.3461   -0.9529 H   0  0  0  0  0  0  0  0  0  0  0  0
   -2.5791   -1.2340    0.8648 H   0  0  0  0  0  0  0  0  0  0  0  0
   -0.1639   -0.7120    0.0896 C   0  0  0  0  0  0  0  0  0  0  0  0
   -1.4407    0.8745    0.7919 H   0  0  0  0  0  0  0  0  0  0  0  0
   -1.3745    0.7932   -0.9201 H   0  0  0  0  0  0  0  0  0  0  0  0
   -0.0402   -1.4899    1.0811 H   0  0  0  0  0  0  0  0  0  0  0  0
    0.7514   -0.0919   -0.2076 H   0  0  0  0  0  0  0  0  0  0  0  0
   -0.1366   -1.1783   -0.6375 H   0  0  0  0  0  0  0  0  0  0  0  0
  1  5  1  0  0  0  0
  2  6  1  0  0  0  0
  2  1  1  0  0  0  0
  2  8  1  0  0  0  0
  3  1  1  0  0  0  0
  4  1  1  0  0  0  0
  6  9  1  0  0  0  0
  6 10  1  0  0  0  0
  7  2  1  0  0  0  0
  9 12  1  0  0  0  0
 11  6  1  0  0  0  0
 13  9  1  0  0  0  0
 14  9  1  0  0  0  0
M  END
$$$$
