butane_opt
 OpenBabel08242015413D

 14 13  0  0  0  0  0  0  0  0999 V2000
   -3.9348    0.2549    0.0464 C   0  0  0  0  0  0  0  0  0  0  0  0
   -2.7000   -0.6062    0.0253 C   0  0  0  0  0  0  0  0  0  0  0  0
   -4.8207   -0.3440    0.0135 H   0  0  0  0  0  0  0  0  0  0  0  0
   -3.9170    0.8524   -0.8483 H   0  0  0  0  0  0  0  0  0  0  0  0
   -3.9565    0.9928    0.9445 H   0  0  0  0  0  0  0  0  0  0  0  0
   -1.4023    0.1870   -0.0255 C   0  0  0  0  0  0  0  0  0  0  0  0
   -2.7323   -1.3442   -0.8910 H   0  0  0  0  0  0  0  0  0  0  0  0
   -2.6658   -1.1894    0.8969 H   0  0  0  0  0  0  0  0  0  0  0  0
   -0.1776   -0.6982    0.0572 C   0  0  0  0  0  0  0  0  0  0  0  0
   -1.4223    0.8585    0.8026 H   0  0  0  0  0  0  0  0  0  0  0  0
   -1.3477    0.8489   -0.9598 H   0  0  0  0  0  0  0  0  0  0  0  0
   -0.1552   -1.3190    0.9565 H   0  0  0  0  0  0  0  0  0  0  0  0
    0.7077   -0.1354    0.0643 H   0  0  0  0  0  0  0  0  0  0  0  0
   -0.1297   -1.3448   -0.7721 H   0  0  0  0  0  0  0  0  0  0  0  0
  1  5  1  0  0  0  0
  2  1  1  0  0  0  0
  2  8  1  0  0  0  0
  3  1  1  0  0  0  0
  4  1  1  0  0  0  0
  6  2  1  0  0  0  0
  6  9  1  0  0  0  0
  6 10  1  0  0  0  0
  7  2  1  0  0  0  0
  9 13  1  0  0  0  0
  9 12  1  0  0  0  0
 11  6  1  0  0  0  0
 14  9  1  0  0  0  0
M  END
$$$$
