butane_opt
 OpenBabel08242015413D

 14 13  0  0  0  0  0  0  0  0999 V2000
   -3.9676    0.2450   -0.0158 C   0  0  0  0  0  0  0  0  0  0  0  0
   -2.7180   -0.5886    0.0445 C   0  0  0  0  0  0  0  0  0  0  0  0
   -4.8844   -0.3817    0.2578 H   0  0  0  0  0  0  0  0  0  0  0  0
   -4.0620    1.0744   -1.0121 H   0  0  0  0  0  0  0  0  0  0  0  0
   -3.7881    0.6647    0.7045 H   0  0  0  0  0  0  0  0  0  0  0  0
   -1.3936    0.2004    0.0668 C   0  0  0  0  0  0  0  0  0  0  0  0
   -2.7779   -1.1799   -0.7687 H   0  0  0  0  0  0  0  0  0  0  0  0
   -2.7617   -1.1654    0.9498 H   0  0  0  0  0  0  0  0  0  0  0  0
   -0.1382   -0.7161    0.0019 C   0  0  0  0  0  0  0  0  0  0  0  0
   -1.3565    0.9185    0.9279 H   0  0  0  0  0  0  0  0  0  0  0  0
   -1.3830    0.8140   -0.8237 H   0  0  0  0  0  0  0  0  0  0  0  0
   -0.0465   -1.2271    0.8154 H   0  0  0  0  0  0  0  0  0  0  0  0
    0.7404   -0.1839    0.0717 H   0  0  0  0  0  0  0  0  0  0  0  0
   -0.0898   -1.5032   -0.8918 H   0  0  0  0  0  0  0  0  0  0  0  0
  1  2  1  0  0  0  0
  1  3  1  0  0  0  0
  1  5  1  0  0  0  0
  2  6  1  0  0  0  0
  2  8  1  0  0  0  0
  4  1  1  0  0  0  0
  6 10  1  0  0  0  0
  7  2  1  0  0  0  0
  9  6  1  0  0  0  0
  9 13  1  0  0  0  0
  9 12  1  0  0  0  0
 11  6  1  0  0  0  0
 14  9  1  0  0  0  0
M  END
$$$$
