14
butane_opt
C  -3.923563   0.248046  -0.010832
C  -2.693609  -0.598007   0.090929
H  -4.804253  -0.332239  -0.185914
H  -3.798769   0.748807  -0.878534
H  -4.167358   0.996294   0.918582
C  -1.428565   0.199557   0.024915
H  -2.676092  -1.201063  -0.708899
H  -2.756944  -1.314464   1.046839
C  -0.155539  -0.700992  -0.008770
H  -1.365634   0.862757   0.933917
H  -1.437456   0.772862  -0.830195
H  -0.143728  -1.275908   0.869629
H   0.709410  -0.141960  -0.000030
H  -0.153935  -1.372355  -0.868068
