14
butane_opt
C  -3.934582   0.245256   0.053694
C  -2.696148  -0.585705  -0.006572
H  -4.871381  -0.401923   0.252431
H  -4.056123   0.985872  -0.952891
H  -3.815753   0.706883   0.817042
C  -1.405519   0.217212  -0.000379
H  -2.765243  -1.371316  -0.957358
H  -2.644326  -1.145860   0.834548
C  -0.175975  -0.716117   0.056179
H  -1.418573   0.821306   0.803034
H  -1.437483   0.864435  -0.882977
H  -0.146796  -1.334124   0.926268
H   0.687299  -0.164726   0.124820
H   0.003812  -1.358355  -0.777326
