butane_opt
 OpenBabel08242015413D

 14 13  0  0  0  0  0  0  0  0999 V2000
   -3.9658    0.2779    0.0469 C   0  0  0  0  0  0  0  0  0  0  0  0
   -2.7208   -0.6432    0.0057 C   0  0  0  0  0  0  0  0  0  0  0  0
   -4.8514   -0.2551   -0.0367 H   0  0  0  0  0  0  0  0  0  0  0  0
   -3.9786    0.7591   -0.7836 H   0  0  0  0  0  0  0  0  0  0  0  0
   -3.9559    1.0939    0.9786 H   0  0  0  0  0  0  0  0  0  0  0  0
   -1.3886    0.1901   -0.0348 C   0  0  0  0  0  0  0  0  0  0  0  0
   -2.7110   -1.2720   -0.8036 H   0  0  0  0  0  0  0  0  0  0  0  0
   -2.6736   -1.2846    0.9446 H   0  0  0  0  0  0  0  0  0  0  0  0
   -0.1552   -0.6832    0.0667 C   0  0  0  0  0  0  0  0  0  0  0  0
   -1.3926    0.8361    0.8026 H   0  0  0  0  0  0  0  0  0  0  0  0
   -1.3040    0.7628   -0.9069 H   0  0  0  0  0  0  0  0  0  0  0  0
   -0.0427   -1.3932    1.0203 H   0  0  0  0  0  0  0  0  0  0  0  0
    0.7891   -0.0818    0.0214 H   0  0  0  0  0  0  0  0  0  0  0  0
   -0.1575   -1.3264   -0.7891 H   0  0  0  0  0  0  0  0  0  0  0  0
  1  5  1  0  0  0  0
  2  1  1  0  0  0  0
  2  8  1  0  0  0  0
  3  1  1  0  0  0  0
  4  1  1  0  0  0  0
  6  2  1  0  0  0  0
  6  9  1  0  0  0  0
  6 10  1  0  0  0  0
  7  2  1  0  0  0  0
  9 12  1  0  0  0  0
 11  6  1  0  0  0  0
 13  9  1  0  0  0  0
 14  9  1  0  0  0  0
M  END
$$$$
