14
butane_opt
C  -3.935295   0.275209   0.054928
C  -2.674536  -0.633011  -0.023645
H  -4.838430  -0.254994   0.239619
H  -4.074776   0.990448  -0.898864
H  -4.015530   0.829347   0.798772
C  -1.403675   0.171497  -0.008808
H  -2.759167  -1.334197  -0.873992
H  -2.667495  -1.260600   0.898252
C  -0.175192  -0.680529   0.055367
H  -1.387371   0.899148   0.855280
H  -1.398804   0.715676  -0.806346
H  -0.199374  -1.333696   0.978844
H   0.758776  -0.046751   0.030525
H  -0.171651  -1.265654  -0.717755
