butane_opt
 OpenBabel08242015413D

 14 13  0  0  0  0  0  0  0  0999 V2000
   -3.9268    0.2505   -0.0180 C   0  0  0  0  0  0  0  0  0  0  0  0
   -2.6962   -0.6108    0.1001 C   0  0  0  0  0  0  0  0  0  0  0  0
   -4.7968   -0.3289    0.0397 H   0  0  0  0  0  0  0  0  0  0  0  0
   -3.9720    0.9465   -0.9762 H   0  0  0  0  0  0  0  0  0  0  0  0
   -3.8956    0.8344    0.8279 H   0  0  0  0  0  0  0  0  0  0  0  0
   -1.4195    0.2022    0.0128 C   0  0  0  0  0  0  0  0  0  0  0  0
   -2.6799   -1.2134   -0.7069 H   0  0  0  0  0  0  0  0  0  0  0  0
   -2.7245   -1.2815    1.0507 H   0  0  0  0  0  0  0  0  0  0  0  0
   -0.1659   -0.7120   -0.0070 C   0  0  0  0  0  0  0  0  0  0  0  0
   -1.4439    0.9543    0.8756 H   0  0  0  0  0  0  0  0  0  0  0  0
   -1.4617    0.7370   -0.8221 H   0  0  0  0  0  0  0  0  0  0  0  0
   -0.2756   -1.0647    0.7405 H   0  0  0  0  0  0  0  0  0  0  0  0
    0.7543   -0.1154    0.2854 H   0  0  0  0  0  0  0  0  0  0  0  0
   -0.0199   -1.5021   -0.9646 H   0  0  0  0  0  0  0  0  0  0  0  0
  1  3  1  0  0  0  0
  1  2  1  0  0  0  0
  1  5  1  0  0  0  0
  2  8  1  0  0  0  0
  4  1  1  0  0  0  0
  6  2  1  0  0  0  0
  6 10  1  0  0  0  0
  7  2  1  0  0  0  0
  9  6  1  0  0  0  0
  9 13  1  0  0  0  0
  9 12  1  0  0  0  0
 11  6  1  0  0  0  0
 14  9  1  0  0  0  0
M  END
$$$$
