butane_opt
 OpenBabel08242015413D

 14 13  0  0  0  0  0  0  0  0999 V2000
   -3.9527    0.2849   -0.0110 C   0  0  0  0  0  0  0  0  0  0  0  0
   -2.6812   -0.6493    0.0940 C   0  0  0  0  0  0  0  0  0  0  0  0
   -4.8863   -0.3420   -0.0702 H   0  0  0  0  0  0  0  0  0  0  0  0
   -4.0197    0.9685   -0.9630 H   0  0  0  0  0  0  0  0  0  0  0  0
   -4.0664    0.9365    0.8067 H   0  0  0  0  0  0  0  0  0  0  0  0
   -1.4010    0.1715    0.0278 C   0  0  0  0  0  0  0  0  0  0  0  0
   -2.7157   -1.1908   -0.6655 H   0  0  0  0  0  0  0  0  0  0  0  0
   -2.7201   -1.3882    1.0022 H   0  0  0  0  0  0  0  0  0  0  0  0
   -0.1632   -0.6669   -0.0104 C   0  0  0  0  0  0  0  0  0  0  0  0
   -1.3029    0.8521    0.8886 H   0  0  0  0  0  0  0  0  0  0  0  0
   -1.4557    0.7437   -0.8174 H   0  0  0  0  0  0  0  0  0  0  0  0
   -0.1969   -1.0941    0.7814 H   0  0  0  0  0  0  0  0  0  0  0  0
    0.7474   -0.1308    0.2200 H   0  0  0  0  0  0  0  0  0  0  0  0
   -0.0320   -1.5094   -0.9715 H   0  0  0  0  0  0  0  0  0  0  0  0
  1  2  1  0  0  0  0
  1  5  1  0  0  0  0
  2  8  1  0  0  0  0
  3  1  1  0  0  0  0
  4  1  1  0  0  0  0
  6  2  1  0  0  0  0
  6 10  1  0  0  0  0
  7  2  1  0  0  0  0
  9  6  1  0  0  0  0
  9 13  1  0  0  0  0
  9 12  1  0  0  0  0
 11  6  1  0  0  0  0
 14  9  1  0  0  0  0
M  END
$$$$
