butane_opt
 OpenBabel08242015413D

 14 13  0  0  0  0  0  0  0  0999 V2000
   -3.9212    0.2431    0.0548 C   0  0  0  0  0  0  0  0  0  0  0  0
   -2.7024   -0.5653    0.0160 C   0  0  0  0  0  0  0  0  0  0  0  0
   -4.9206   -0.4513   -0.1203 H   0  0  0  0  0  0  0  0  0  0  0  0
   -3.8546    0.7570   -0.7820 H   0  0  0  0  0  0  0  0  0  0  0  0
   -3.9521    1.0215    1.0548 H   0  0  0  0  0  0  0  0  0  0  0  0
   -1.4176    0.1975   -0.0238 C   0  0  0  0  0  0  0  0  0  0  0  0
   -2.6953   -1.3299   -0.9037 H   0  0  0  0  0  0  0  0  0  0  0  0
   -2.7429   -1.1712    0.8552 H   0  0  0  0  0  0  0  0  0  0  0  0
   -0.1777   -0.7180    0.0551 C   0  0  0  0  0  0  0  0  0  0  0  0
   -1.3927    0.7961    0.7901 H   0  0  0  0  0  0  0  0  0  0  0  0
   -1.3864    0.8564   -0.9634 H   0  0  0  0  0  0  0  0  0  0  0  0
   -0.0883   -1.4761    1.0427 H   0  0  0  0  0  0  0  0  0  0  0  0
    0.7460   -0.1228   -0.0242 H   0  0  0  0  0  0  0  0  0  0  0  0
   -0.1010   -1.2392   -0.7000 H   0  0  0  0  0  0  0  0  0  0  0  0
  1  5  1  0  0  0  0
  2  1  1  0  0  0  0
  2  8  1  0  0  0  0
  3  1  1  0  0  0  0
  4  1  1  0  0  0  0
  6  2  1  0  0  0  0
  6  9  1  0  0  0  0
  6 10  1  0  0  0  0
  7  2  1  0  0  0  0
  9 12  1  0  0  0  0
 11  6  1  0  0  0  0
 13  9  1  0  0  0  0
 14  9  1  0  0  0  0
M  END
$$$$
