14
butane_opt
C  -3.974330   0.282405  -0.030859
C  -2.694260  -0.658076   0.101112
H  -4.785415  -0.243549   0.020330
H  -4.035489   0.969645  -0.965539
H  -3.973680   0.847174   0.803886
C  -1.374914   0.183168   0.032659
H  -2.610751  -1.231253  -0.609275
H  -2.802457  -1.312549   1.026893
C  -0.164002  -0.682725  -0.009876
H  -1.379143   0.913698   0.929140
H  -1.430197   0.798216  -0.833913
H  -0.176219  -1.051171   0.728206
H   0.752650  -0.104329   0.204415
H  -0.107589  -1.548095  -1.013399
