14
butane_opt
C  -3.940272   0.291796  -0.035729
C  -2.684868  -0.649321   0.080485
H  -4.845170  -0.266127  -0.009358
H  -4.045856   0.888388  -0.940660
H  -3.956764   0.905748   0.761704
C  -1.412453   0.162905   0.089979
H  -2.622068  -1.376643  -0.840337
H  -2.681671  -1.250118   0.967226
C  -0.184057  -0.674272  -0.009852
H  -1.296119   0.852847   0.981215
H  -1.367998   0.840351  -0.808483
H   0.014338  -1.371976   0.926404
H   0.762208  -0.046037  -0.243963
H  -0.334071  -1.216132  -0.847051
