14
butane_opt
C  -3.951131   0.282610  -0.037214
C  -2.705810  -0.655130   0.072937
H  -4.787965  -0.233551  -0.029576
H  -3.951271   0.997855  -1.015423
H  -4.070850   0.914947   0.779007
C  -1.401951   0.162721   0.109646
H  -2.692470  -1.244897  -0.729974
H  -2.775436  -1.230229   0.980898
C  -0.152122  -0.671022  -0.015823
H  -1.284065   0.858933   0.985771
H  -1.393187   0.763270  -0.758264
H  -0.012126  -1.365875   0.913076
H   0.797725  -0.078344  -0.335373
H  -0.333832  -1.273553  -0.908774
