butane_opt
 OpenBabel08242015413D

 14 13  0  0  0  0  0  0  0  0999 V2000
   -3.9342    0.2396    0.0876 C   0  0  0  0  0  0  0  0  0  0  0  0
   -2.7022   -0.5798   -0.0231 C   0  0  0  0  0  0  0  0  0  0  0  0
   -4.8632   -0.3712    0.1147 H   0  0  0  0  0  0  0  0  0  0  0  0
   -3.9525    0.8441   -0.7825 H   0  0  0  0  0  0  0  0  0  0  0  0
   -3.9687    0.9972    1.0108 H   0  0  0  0  0  0  0  0  0  0  0  0
   -1.4144    0.1891   -0.0856 C   0  0  0  0  0  0  0  0  0  0  0  0
   -2.7656   -1.2865   -0.9136 H   0  0  0  0  0  0  0  0  0  0  0  0
   -2.6474   -1.2433    0.9273 H   0  0  0  0  0  0  0  0  0  0  0  0
   -0.1662   -0.7092    0.0926 C   0  0  0  0  0  0  0  0  0  0  0  0
   -1.5027    0.8614    0.7410 H   0  0  0  0  0  0  0  0  0  0  0  0
   -1.3276    0.8298   -0.9913 H   0  0  0  0  0  0  0  0  0  0  0  0
   -0.2440   -1.2739    0.9848 H   0  0  0  0  0  0  0  0  0  0  0  0
    0.8316   -0.0712    0.2579 H   0  0  0  0  0  0  0  0  0  0  0  0
    0.0296   -1.4353   -0.7671 H   0  0  0  0  0  0  0  0  0  0  0  0
  1  3  1  0  0  0  0
  1  5  1  0  0  0  0
  2  1  1  0  0  0  0
  2  8  1  0  0  0  0
  4  1  1  0  0  0  0
  6  2  1  0  0  0  0
  6  9  1  0  0  0  0
  6 10  1  0  0  0  0
  7  2  1  0  0  0  0
  9 13  1  0  0  0  0
  9 12  1  0  0  0  0
 11  6  1  0  0  0  0
 14  9  1  0  0  0  0
M  END
$$$$
