butane_opt
 OpenBabel08242015413D

 14 13  0  0  0  0  0  0  0  0999 V2000
   -3.9543    0.2779    0.0757 C   0  0  0  0  0  0  0  0  0  0  0  0
   -2.7065   -0.6466   -0.0419 C   0  0  0  0  0  0  0  0  0  0  0  0
   -4.8227   -0.2423    0.2369 H   0  0  0  0  0  0  0  0  0  0  0  0
   -4.1643    1.0203   -0.8793 H   0  0  0  0  0  0  0  0  0  0  0  0
   -3.8240    0.8482    0.9275 H   0  0  0  0  0  0  0  0  0  0  0  0
   -1.3977    0.1952   -0.0203 C   0  0  0  0  0  0  0  0  0  0  0  0
   -2.7526   -1.4523   -0.9780 H   0  0  0  0  0  0  0  0  0  0  0  0
   -2.7945   -1.1787    0.8337 H   0  0  0  0  0  0  0  0  0  0  0  0
   -0.1413   -0.6850    0.0826 C   0  0  0  0  0  0  0  0  0  0  0  0
   -1.4160    0.7698    0.7605 H   0  0  0  0  0  0  0  0  0  0  0  0
   -1.3021    0.8806   -0.9660 H   0  0  0  0  0  0  0  0  0  0  0  0
   -0.2103   -1.3668    1.0260 H   0  0  0  0  0  0  0  0  0  0  0  0
    0.7628   -0.1000    0.0615 H   0  0  0  0  0  0  0  0  0  0  0  0
   -0.1081   -1.3304   -0.7452 H   0  0  0  0  0  0  0  0  0  0  0  0
  1  3  1  0  0  0  0
  1  5  1  0  0  0  0
  2  6  1  0  0  0  0
  2  1  1  0  0  0  0
  2  8  1  0  0  0  0
  4  1  1  0  0  0  0
  6  9  1  0  0  0  0
  6 10  1  0  0  0  0
  7  2  1  0  0  0  0
  9 12  1  0  0  0  0
 11  6  1  0  0  0  0
 13  9  1  0  0  0  0
 14  9  1  0  0  0  0
M  END
$$$$
