14
butane_opt
C  -3.919956   0.244267   0.005194
C  -2.697958  -0.593432   0.024218
H  -4.863985  -0.387219   0.167779
H  -3.944192   0.993986  -0.962101
H  -3.875422   0.711873   0.742126
C  -1.437146   0.210497   0.057916
H  -2.704741  -1.292080  -0.815237
H  -2.699513  -1.199734   0.922374
C  -0.158378  -0.706643   0.026317
H  -1.379191   0.914985   0.927898
H  -1.392602   0.875798  -0.823669
H  -0.066546  -1.337193   0.883047
H   0.693234  -0.199824  -0.145834
H  -0.213487  -1.420225  -0.846218
