butane_opt
 OpenBabel08242015413D

 14 13  0  0  0  0  0  0  0  0999 V2000
   -3.9669    0.2844    0.0794 C   0  0  0  0  0  0  0  0  0  0  0  0
   -2.7011   -0.6310   -0.0188 C   0  0  0  0  0  0  0  0  0  0  0  0
   -4.8679   -0.3190    0.1971 H   0  0  0  0  0  0  0  0  0  0  0  0
   -4.0758    0.9684   -0.8759 H   0  0  0  0  0  0  0  0  0  0  0  0
   -3.9124    0.8898    0.8740 H   0  0  0  0  0  0  0  0  0  0  0  0
   -1.3858    0.1615   -0.0423 C   0  0  0  0  0  0  0  0  0  0  0  0
   -2.7724   -1.4412   -0.9416 H   0  0  0  0  0  0  0  0  0  0  0  0
   -2.7319   -1.1140    0.7605 H   0  0  0  0  0  0  0  0  0  0  0  0
   -0.1589   -0.6806    0.0825 C   0  0  0  0  0  0  0  0  0  0  0  0
   -1.3864    0.8026    0.7760 H   0  0  0  0  0  0  0  0  0  0  0  0
   -1.3517    0.8146   -0.9528 H   0  0  0  0  0  0  0  0  0  0  0  0
   -0.1078   -1.3070    0.9908 H   0  0  0  0  0  0  0  0  0  0  0  0
    0.7789   -0.1190    0.1147 H   0  0  0  0  0  0  0  0  0  0  0  0
   -0.0595   -1.2416   -0.7022 H   0  0  0  0  0  0  0  0  0  0  0  0
  1  3  1  0  0  0  0
  1  5  1  0  0  0  0
  2  1  1  0  0  0  0
  2  8  1  0  0  0  0
  4  1  1  0  0  0  0
  6  2  1  0  0  0  0
  6  9  1  0  0  0  0
  6 10  1  0  0  0  0
  7  2  1  0  0  0  0
  9 13  1  0  0  0  0
  9 12  1  0  0  0  0
 11  6  1  0  0  0  0
 14  9  1  0  0  0  0
M  END
$$$$
