butane_opt
 OpenBabel08242015413D

 14 13  0  0  0  0  0  0  0  0999 V2000
   -3.9610    0.2714    0.0369 C   0  0  0  0  0  0  0  0  0  0  0  0
   -2.6995   -0.6251    0.0171 C   0  0  0  0  0  0  0  0  0  0  0  0
   -4.8852   -0.3434   -0.0276 H   0  0  0  0  0  0  0  0  0  0  0  0
   -3.9815    0.8227   -0.7940 H   0  0  0  0  0  0  0  0  0  0  0  0
   -3.9787    1.0662    0.9741 H   0  0  0  0  0  0  0  0  0  0  0  0
   -1.3973    0.1820   -0.0160 C   0  0  0  0  0  0  0  0  0  0  0  0
   -2.7389   -1.3534   -0.8555 H   0  0  0  0  0  0  0  0  0  0  0  0
   -2.6788   -1.2064    0.8898 H   0  0  0  0  0  0  0  0  0  0  0  0
   -0.1571   -0.6924    0.0489 C   0  0  0  0  0  0  0  0  0  0  0  0
   -1.3482    0.8610    0.8611 H   0  0  0  0  0  0  0  0  0  0  0  0
   -1.3406    0.7929   -0.9107 H   0  0  0  0  0  0  0  0  0  0  0  0
   -0.1252   -1.4432    1.0321 H   0  0  0  0  0  0  0  0  0  0  0  0
    0.7814   -0.0860   -0.0580 H   0  0  0  0  0  0  0  0  0  0  0  0
   -0.1477   -1.2074   -0.6918 H   0  0  0  0  0  0  0  0  0  0  0  0
  1  5  1  0  0  0  0
  2  1  1  0  0  0  0
  2  8  1  0  0  0  0
  3  1  1  0  0  0  0
  4  1  1  0  0  0  0
  6  2  1  0  0  0  0
  6  9  1  0  0  0  0
  6 10  1  0  0  0  0
  7  2  1  0  0  0  0
  9 12  1  0  0  0  0
 11  6  1  0  0  0  0
 13  9  1  0  0  0  0
 14  9  1  0  0  0  0
M  END
$$$$
