14
butane_opt
C  -3.913188   0.257788  -0.025157
C  -2.707833  -0.592704   0.074586
H  -4.850867  -0.378066  -0.001726
H  -3.878721   0.862949  -0.927676
H  -3.899095   0.870522   0.777856
C  -1.421458   0.203760   0.058036
H  -2.740131  -1.272488  -0.761241
H  -2.831044  -1.313897   1.067949
C  -0.166220  -0.715502  -0.005868
H  -1.440979   0.975020   0.937944
H  -1.422960   0.769337  -0.762495
H   0.009247  -1.345898   0.839058
H   0.769394  -0.135677  -0.079770
H  -0.237815  -1.337730  -0.868666
