14
butane_opt
C  -3.973880   0.296313  -0.011836
C  -2.697037  -0.642359   0.059899
H  -4.901702  -0.332649   0.127636
H  -3.961409   0.992877  -0.908238
H  -4.036874   0.836412   0.750868
C  -1.385254   0.162206   0.054221
H  -2.672351  -1.305357  -0.793566
H  -2.686749  -1.337157   0.966121
C  -0.154712  -0.671540   0.004322
H  -1.437176   0.839631   0.918445
H  -1.331145   0.791692  -0.852493
H  -0.095627  -1.216848   0.865209
H   0.778469  -0.039918   0.007730
H  -0.166878  -1.429491  -0.941371
