butane_opt
 OpenBabel08242015413D

 14 13  0  0  0  0  0  0  0  0999 V2000
   -3.9200    0.2443    0.0052 C   0  0  0  0  0  0  0  0  0  0  0  0
   -2.6980   -0.5934    0.0242 C   0  0  0  0  0  0  0  0  0  0  0  0
   -4.8640   -0.3872    0.1678 H   0  0  0  0  0  0  0  0  0  0  0  0
   -3.9442    0.9940   -0.9621 H   0  0  0  0  0  0  0  0  0  0  0  0
   -3.8754    0.7119    0.7421 H   0  0  0  0  0  0  0  0  0  0  0  0
   -1.4371    0.2105    0.0579 C   0  0  0  0  0  0  0  0  0  0  0  0
   -2.7047   -1.2921   -0.8152 H   0  0  0  0  0  0  0  0  0  0  0  0
   -2.6995   -1.1997    0.9224 H   0  0  0  0  0  0  0  0  0  0  0  0
   -0.1584   -0.7066    0.0263 C   0  0  0  0  0  0  0  0  0  0  0  0
   -1.3792    0.9150    0.9279 H   0  0  0  0  0  0  0  0  0  0  0  0
   -1.3926    0.8758   -0.8237 H   0  0  0  0  0  0  0  0  0  0  0  0
   -0.0665   -1.3372    0.8830 H   0  0  0  0  0  0  0  0  0  0  0  0
    0.6932   -0.1998   -0.1458 H   0  0  0  0  0  0  0  0  0  0  0  0
   -0.2135   -1.4202   -0.8462 H   0  0  0  0  0  0  0  0  0  0  0  0
  1  2  1  0  0  0  0
  1  3  1  0  0  0  0
  1  5  1  0  0  0  0
  2  6  1  0  0  0  0
  2  8  1  0  0  0  0
  4  1  1  0  0  0  0
  6 10  1  0  0  0  0
  7  2  1  0  0  0  0
  9  6  1  0  0  0  0
  9 12  1  0  0  0  0
 11  6  1  0  0  0  0
 13  9  1  0  0  0  0
 14  9  1  0  0  0  0
M  END
$$$$
