14
butane_opt
C  -3.953338   0.280733  -0.017288
C  -2.691368  -0.636814   0.077286
H  -4.860893  -0.337660   0.164230
H  -3.971352   1.134504  -1.077242
H  -3.955980   0.805113   0.716054
C  -1.400593   0.160692   0.062338
H  -2.596782  -1.330023  -0.784800
H  -2.677902  -1.246530   0.909423
C  -0.176376  -0.677581   0.004417
H  -1.370516   0.895384   0.951377
H  -1.415654   0.713716  -0.793675
H  -0.125536  -1.162467   0.797290
H   0.808490  -0.036142  -0.077047
H  -0.207436  -1.412863  -0.915470
