butane_opt
 OpenBabel08242015413D

 14 13  0  0  0  0  0  0  0  0999 V2000
   -3.9554    0.2849    0.0302 C   0  0  0  0  0  0  0  0  0  0  0  0
   -2.6984   -0.6394    0.0304 C   0  0  0  0  0  0  0  0  0  0  0  0
   -4.8127   -0.2513   -0.0732 H   0  0  0  0  0  0  0  0  0  0  0  0
   -3.9826    0.7143   -0.7672 H   0  0  0  0  0  0  0  0  0  0  0  0
   -3.9842    1.1867    1.0585 H   0  0  0  0  0  0  0  0  0  0  0  0
   -1.3946    0.1558   -0.0165 C   0  0  0  0  0  0  0  0  0  0  0  0
   -2.7247   -1.3847   -0.8846 H   0  0  0  0  0  0  0  0  0  0  0  0
   -2.6835   -1.2602    0.8747 H   0  0  0  0  0  0  0  0  0  0  0  0
   -0.1716   -0.6704    0.0597 C   0  0  0  0  0  0  0  0  0  0  0  0
   -1.3141    0.7519    0.7642 H   0  0  0  0  0  0  0  0  0  0  0  0
   -1.3025    0.9183   -0.9852 H   0  0  0  0  0  0  0  0  0  0  0  0
   -0.0985   -1.3673    0.9798 H   0  0  0  0  0  0  0  0  0  0  0  0
    0.7353   -0.0974   -0.0197 H   0  0  0  0  0  0  0  0  0  0  0  0
   -0.2234   -1.2424   -0.7136 H   0  0  0  0  0  0  0  0  0  0  0  0
  1  2  1  0  0  0  0
  1  5  1  0  0  0  0
  2  8  1  0  0  0  0
  3  1  1  0  0  0  0
  4  1  1  0  0  0  0
  6  2  1  0  0  0  0
  6  9  1  0  0  0  0
  6 10  1  0  0  0  0
  7  2  1  0  0  0  0
  9 12  1  0  0  0  0
 11  6  1  0  0  0  0
 13  9  1  0  0  0  0
 14  9  1  0  0  0  0
M  END
$$$$
