14
butane_opt
C  -3.919636   0.247519   0.050149
C  -2.688243  -0.589353   0.007339
H  -4.954015  -0.471059  -0.092605
H  -3.851936   0.627485  -0.674293
H  -3.976719   1.158990   1.064694
C  -1.417062   0.208279  -0.037212
H  -2.829751  -1.259713  -0.895042
H  -2.650517  -1.159090   0.876089
C  -0.170467  -0.722720   0.082813
H  -1.458634   0.774663   0.709269
H  -1.348624   0.951170  -1.015493
H  -0.098939  -1.406080   1.045340
H   0.714879  -0.128340  -0.061026
H  -0.197249  -1.317272  -0.722976
