butane_opt
 OpenBabel08242015413D

 14 13  0  0  0  0  0  0  0  0999 V2000
   -3.9458    0.2864    0.0453 C   0  0  0  0  0  0  0  0  0  0  0  0
   -2.6917   -0.6469    0.0247 C   0  0  0  0  0  0  0  0  0  0  0  0
   -4.8179   -0.2964   -0.0718 H   0  0  0  0  0  0  0  0  0  0  0  0
   -3.8952    0.8428   -0.8048 H   0  0  0  0  0  0  0  0  0  0  0  0
   -3.9478    0.9666    0.8784 H   0  0  0  0  0  0  0  0  0  0  0  0
   -1.3976    0.1768   -0.0028 C   0  0  0  0  0  0  0  0  0  0  0  0
   -2.7310   -1.4046   -0.8882 H   0  0  0  0  0  0  0  0  0  0  0  0
   -2.6061   -1.1752    0.8002 H   0  0  0  0  0  0  0  0  0  0  0  0
   -0.1859   -0.6733    0.0496 C   0  0  0  0  0  0  0  0  0  0  0  0
   -1.4643    0.8362    0.8255 H   0  0  0  0  0  0  0  0  0  0  0  0
   -1.3389    0.8127   -0.8686 H   0  0  0  0  0  0  0  0  0  0  0  0
   -0.0768   -1.4892    1.0626 H   0  0  0  0  0  0  0  0  0  0  0  0
    0.6955   -0.0734   -0.1323 H   0  0  0  0  0  0  0  0  0  0  0  0
   -0.2124   -1.2014   -0.7525 H   0  0  0  0  0  0  0  0  0  0  0  0
  1  5  1  0  0  0  0
  2  1  1  0  0  0  0
  2  8  1  0  0  0  0
  3  1  1  0  0  0  0
  4  1  1  0  0  0  0
  6  2  1  0  0  0  0
  6  9  1  0  0  0  0
  6 10  1  0  0  0  0
  7  2  1  0  0  0  0
  9 12  1  0  0  0  0
 11  6  1  0  0  0  0
 13  9  1  0  0  0  0
 14  9  1  0  0  0  0
M  END
$$$$
