14
butane_opt
C  -3.933953   0.265201   0.004553
C  -2.701474  -0.608140   0.070756
H  -4.849097  -0.333612  -0.147321
H  -3.859863   0.802545  -0.848874
H  -4.024116   0.965265   0.867870
C  -1.410795   0.185962   0.014975
H  -2.704944  -1.245657  -0.730541
H  -2.714549  -1.289178   1.004077
C  -0.174635  -0.698142   0.007098
H  -1.360534   0.882821   0.896392
H  -1.374381   0.767432  -0.835185
H  -0.120130  -1.295194   0.921990
H   0.735770  -0.098157   0.001198
H  -0.107714  -1.369714  -0.862110
