14
butane_opt
C  -3.931825   0.269788   0.056270
C  -2.693360  -0.636999  -0.013650
H  -4.815272  -0.288584   0.061976
H  -3.975577   0.899251  -0.865617
H  -3.892216   1.035483   0.969450
C  -1.412230   0.176095   0.004397
H  -2.731097  -1.342717  -0.949935
H  -2.684895  -1.147582   0.799637
C  -0.180182  -0.688996   0.065829
H  -1.474936   0.773236   0.787634
H  -1.270635   0.837963  -0.938935
H  -0.056162  -1.438178   1.068068
H   0.793092  -0.079791  -0.145815
H  -0.309600  -1.145699  -0.677754
