14
butane_opt
C  -3.956975   0.263047  -0.042401
C  -2.678216  -0.601279   0.126636
H  -4.870665  -0.381583  -0.163193
H  -3.851114   0.850309  -0.971679
H  -4.088602   0.984734   0.807141
C  -1.410246   0.173927   0.066118
H  -2.661812  -1.274233  -0.706634
H  -2.695936  -1.276981   0.999750
C  -0.175197  -0.694982  -0.030073
H  -1.356410   0.875984   0.962317
H  -1.364128   0.734337  -0.761816
H   0.003661  -1.287786   0.812804
H   0.762556  -0.052851  -0.099475
H  -0.251865  -1.323232  -0.879797
