butane_opt
 OpenBabel08242015413D

 14 13  0  0  0  0  0  0  0  0999 V2000
   -3.9360    0.2741    0.0055 C   0  0  0  0  0  0  0  0  0  0  0  0
   -2.6884   -0.6232    0.0548 C   0  0  0  0  0  0  0  0  0  0  0  0
   -4.8371   -0.3010   -0.0060 H   0  0  0  0  0  0  0  0  0  0  0  0
   -3.9880    0.8278   -0.8432 H   0  0  0  0  0  0  0  0  0  0  0  0
   -3.9494    0.9552    0.8612 H   0  0  0  0  0  0  0  0  0  0  0  0
   -1.4059    0.1832    0.0296 C   0  0  0  0  0  0  0  0  0  0  0  0
   -2.6152   -1.4231   -0.8574 H   0  0  0  0  0  0  0  0  0  0  0  0
   -2.6754   -1.2500    0.9202 H   0  0  0  0  0  0  0  0  0  0  0  0
   -0.1948   -0.6892    0.0291 C   0  0  0  0  0  0  0  0  0  0  0  0
   -1.4028    0.8472    0.8255 H   0  0  0  0  0  0  0  0  0  0  0  0
   -1.3288    0.8355   -0.9031 H   0  0  0  0  0  0  0  0  0  0  0  0
   -0.0754   -1.3168    0.9593 H   0  0  0  0  0  0  0  0  0  0  0  0
    0.7358   -0.0851   -0.1226 H   0  0  0  0  0  0  0  0  0  0  0  0
   -0.1927   -1.2932   -0.8179 H   0  0  0  0  0  0  0  0  0  0  0  0
  1  2  1  0  0  0  0
  1  5  1  0  0  0  0
  2  8  1  0  0  0  0
  3  1  1  0  0  0  0
  4  1  1  0  0  0  0
  6  2  1  0  0  0  0
  6 10  1  0  0  0  0
  7  2  1  0  0  0  0
  9  6  1  0  0  0  0
  9 12  1  0  0  0  0
 11  6  1  0  0  0  0
 13  9  1  0  0  0  0
 14  9  1  0  0  0  0
M  END
$$$$
