14
butane_opt
C  -3.925828   0.255161   0.027840
C  -2.676488  -0.597808   0.059183
H  -4.847693  -0.386162  -0.192158
H  -3.902013   0.742600  -0.806340
H  -4.071313   1.022003   0.965241
C  -1.423528   0.196367  -0.000604
H  -2.609253  -1.329833  -0.838140
H  -2.731620  -1.241054   0.935886
C  -0.189831  -0.693512   0.024660
H  -1.326780   0.799220   0.833799
H  -1.396848   0.840799  -0.948242
H  -0.166849  -1.383602   0.993339
H   0.714254  -0.094530  -0.018375
H  -0.088603  -1.364122  -0.797207
