14
butane_opt
C  -3.955346   0.250127   0.039623
C  -2.707869  -0.607552   0.043256
H  -4.874932  -0.332350  -0.134138
H  -3.860317   0.619027  -0.680837
H  -4.041278   1.109024   0.986718
C  -1.407706   0.217873  -0.039724
H  -2.745066  -1.388594  -0.876057
H  -2.608640  -1.189194   0.918661
C  -0.156447  -0.713930   0.054989
H  -1.380288   0.822213   0.764219
H  -1.399491   0.946177  -1.021932
H  -0.111625  -1.367523   1.007801
H   0.753575  -0.118243   0.064955
H  -0.027166  -1.341988  -0.737981
