butane_opt
 OpenBabel08242015413D

 14 13  0  0  0  0  0  0  0  0999 V2000
   -3.9585    0.2760    0.0436 C   0  0  0  0  0  0  0  0  0  0  0  0
   -2.6938   -0.6188    0.0027 C   0  0  0  0  0  0  0  0  0  0  0  0
   -4.8713   -0.3513    0.1176 H   0  0  0  0  0  0  0  0  0  0  0  0
   -4.0340    0.8889   -0.8428 H   0  0  0  0  0  0  0  0  0  0  0  0
   -3.8833    0.8862    0.8694 H   0  0  0  0  0  0  0  0  0  0  0  0
   -1.4025    0.1796   -0.0066 C   0  0  0  0  0  0  0  0  0  0  0  0
   -2.7735   -1.3590   -0.8916 H   0  0  0  0  0  0  0  0  0  0  0  0
   -2.6547   -1.2311    0.8607 H   0  0  0  0  0  0  0  0  0  0  0  0
   -0.1600   -0.6896    0.0650 C   0  0  0  0  0  0  0  0  0  0  0  0
   -1.4328    0.8239    0.8270 H   0  0  0  0  0  0  0  0  0  0  0  0
   -1.3574    0.8638   -0.9344 H   0  0  0  0  0  0  0  0  0  0  0  0
   -0.1050   -1.3348    0.9568 H   0  0  0  0  0  0  0  0  0  0  0  0
    0.7782   -0.0739    0.0111 H   0  0  0  0  0  0  0  0  0  0  0  0
   -0.1250   -1.3394   -0.7965 H   0  0  0  0  0  0  0  0  0  0  0  0
  1  3  1  0  0  0  0
  1  5  1  0  0  0  0
  2  1  1  0  0  0  0
  2  8  1  0  0  0  0
  4  1  1  0  0  0  0
  6  2  1  0  0  0  0
  6  9  1  0  0  0  0
  6 10  1  0  0  0  0
  7  2  1  0  0  0  0
  9 12  1  0  0  0  0
 11  6  1  0  0  0  0
 13  9  1  0  0  0  0
 14  9  1  0  0  0  0
M  END
$$$$
