14
butane_opt
C  -3.966552   0.284573   0.068026
C  -2.696811  -0.642290   0.007970
H  -4.853045  -0.290211   0.040498
H  -3.998375   0.908438  -0.842486
H  -4.061730   0.972525   0.974283
C  -1.390219   0.171145  -0.049922
H  -2.802680  -1.404511  -0.875015
H  -2.645211  -1.230152   0.840146
C  -0.133520  -0.669329   0.067203
H  -1.480214   0.736830   0.753129
H  -1.372364   0.849870  -0.952464
H  -0.262060  -1.280565   0.977132
H   0.797147  -0.073070   0.226921
H  -0.106438  -1.375735  -0.823896
