14
butane_opt
C  -3.903924   0.241593  -0.027126
C  -2.713999  -0.593692   0.106488
H  -4.849560  -0.330048  -0.052200
H  -3.848078   0.855834  -0.957989
H  -4.026798   0.999740   0.876885
C  -1.421608   0.193503   0.043914
H  -2.676530  -1.322666  -0.809973
H  -2.769608  -1.216418   1.011380
C  -0.173312  -0.708662  -0.017064
H  -1.366878   0.929965   0.928202
H  -1.489944   0.791900  -0.853269
H  -0.063562  -1.321501   0.893737
H   0.750420  -0.099635  -0.017588
H  -0.125891  -1.352773  -0.835263
