14
butane_opt
C  -3.949512   0.276235  -0.042791
C  -2.706640  -0.639772   0.107772
H  -4.771435  -0.245140  -0.105365
H  -3.943951   0.963003  -1.039593
H  -4.079705   0.868534   0.783129
C  -1.404600   0.179432   0.099794
H  -2.757406  -1.326275  -0.774812
H  -2.708658  -1.196103   0.970593
C  -0.154205  -0.678430  -0.028326
H  -1.280420   0.891303   0.953056
H  -1.401354   0.717314  -0.751512
H   0.001457  -1.407530   0.913249
H   0.769714  -0.068083  -0.250787
H  -0.283372  -1.301630  -0.902698
