butane_opt
 OpenBabel08242015413D

 14 13  0  0  0  0  0  0  0  0999 V2000
   -3.9229    0.2660    0.0581 C   0  0  0  0  0  0  0  0  0  0  0  0
   -2.6934   -0.6177    0.0095 C   0  0  0  0  0  0  0  0  0  0  0  0
   -4.8722   -0.3617   -0.1113 H   0  0  0  0  0  0  0  0  0  0  0  0
   -3.8583    0.6661   -0.7223 H   0  0  0  0  0  0  0  0  0  0  0  0
   -3.9299    1.0130    1.0073 H   0  0  0  0  0  0  0  0  0  0  0  0
   -1.4194    0.1993   -0.0334 C   0  0  0  0  0  0  0  0  0  0  0  0
   -2.7101   -1.3000   -0.9083 H   0  0  0  0  0  0  0  0  0  0  0  0
   -2.7191   -1.1539    0.8345 H   0  0  0  0  0  0  0  0  0  0  0  0
   -0.1830   -0.7021    0.0772 C   0  0  0  0  0  0  0  0  0  0  0  0
   -1.4821    0.8246    0.7794 H   0  0  0  0  0  0  0  0  0  0  0  0
   -1.3558    0.9083   -0.9855 H   0  0  0  0  0  0  0  0  0  0  0  0
    0.0126   -1.4194    1.0309 H   0  0  0  0  0  0  0  0  0  0  0  0
    0.7080   -0.1418   -0.1059 H   0  0  0  0  0  0  0  0  0  0  0  0
   -0.1998   -1.2610   -0.6844 H   0  0  0  0  0  0  0  0  0  0  0  0
  1  5  1  0  0  0  0
  2  1  1  0  0  0  0
  2  8  1  0  0  0  0
  3  1  1  0  0  0  0
  4  1  1  0  0  0  0
  6  2  1  0  0  0  0
  6  9  1  0  0  0  0
  6 10  1  0  0  0  0
  7  2  1  0  0  0  0
  9 12  1  0  0  0  0
 11  6  1  0  0  0  0
 13  9  1  0  0  0  0
 14  9  1  0  0  0  0
M  END
$$$$
