14
butane_opt
C  -3.916417   0.246289   0.028494
C  -2.691102  -0.601259   0.045669
H  -4.833757  -0.316023  -0.124302
H  -3.889949   0.709940  -0.780828
H  -3.998498   1.070348   0.951392
C  -1.412149   0.194510  -0.004274
H  -2.769826  -1.240826  -0.791093
H  -2.797472  -1.187646   0.937764
C  -0.180299  -0.713365   0.037426
H  -1.502039   0.797549   0.813242
H  -1.348210   0.940965  -0.995741
H  -0.090956  -1.306892   0.921216
H   0.762097  -0.114363   0.053368
H  -0.156460  -1.348543  -0.817249
