butane_opt
 OpenBabel08242015413D

 14 13  0  0  0  0  0  0  0  0999 V2000
   -3.9343    0.2819    0.0450 C   0  0  0  0  0  0  0  0  0  0  0  0
   -2.6930   -0.6397    0.0039 C   0  0  0  0  0  0  0  0  0  0  0  0
   -4.7848   -0.2776   -0.0295 H   0  0  0  0  0  0  0  0  0  0  0  0
   -4.0416    0.8303   -0.8007 H   0  0  0  0  0  0  0  0  0  0  0  0
   -3.9147    1.0448    0.9400 H   0  0  0  0  0  0  0  0  0  0  0  0
   -1.4120    0.1654   -0.0177 C   0  0  0  0  0  0  0  0  0  0  0  0
   -2.7016   -1.3539   -0.9162 H   0  0  0  0  0  0  0  0  0  0  0  0
   -2.5916   -1.3520    0.9152 H   0  0  0  0  0  0  0  0  0  0  0  0
   -0.1681   -0.6698    0.0673 C   0  0  0  0  0  0  0  0  0  0  0  0
   -1.4193    0.8900    0.8376 H   0  0  0  0  0  0  0  0  0  0  0  0
   -1.3928    0.7897   -0.8745 H   0  0  0  0  0  0  0  0  0  0  0  0
   -0.1677   -1.3912    1.0229 H   0  0  0  0  0  0  0  0  0  0  0  0
    0.7738   -0.0816   -0.1074 H   0  0  0  0  0  0  0  0  0  0  0  0
   -0.2937   -1.2112   -0.7167 H   0  0  0  0  0  0  0  0  0  0  0  0
  1  5  1  0  0  0  0
  2  1  1  0  0  0  0
  2  8  1  0  0  0  0
  3  1  1  0  0  0  0
  4  1  1  0  0  0  0
  6  2  1  0  0  0  0
  6  9  1  0  0  0  0
  6 10  1  0  0  0  0
  7  2  1  0  0  0  0
  9 12  1  0  0  0  0
 11  6  1  0  0  0  0
 13  9  1  0  0  0  0
 14  9  1  0  0  0  0
M  END
$$$$
