14
butane_opt
C  -3.967515   0.272166   0.002947
C  -2.693401  -0.620060   0.061689
H  -4.873619  -0.283077  -0.004936
H  -4.031275   0.909002  -0.865777
H  -3.974989   0.933248   0.858245
C  -1.408930   0.164834   0.024096
H  -2.649356  -1.310304  -0.797125
H  -2.721853  -1.308296   0.997256
C  -0.148234  -0.671559   0.016340
H  -1.329677   0.748520   0.861388
H  -1.300200   0.870051  -0.929650
H  -0.196313  -1.193390   0.883818
H   0.763469  -0.102483   0.120015
H  -0.096656  -1.482127  -0.964499
