butane_opt
 OpenBabel08242015413D

 14 13  0  0  0  0  0  0  0  0999 V2000
   -3.9363    0.2557    0.0672 C   0  0  0  0  0  0  0  0  0  0  0  0
   -2.6994   -0.5946   -0.0174 C   0  0  0  0  0  0  0  0  0  0  0  0
   -4.8485   -0.3467    0.0342 H   0  0  0  0  0  0  0  0  0  0  0  0
   -3.9779    0.6959   -0.7063 H   0  0  0  0  0  0  0  0  0  0  0  0
   -3.9066    0.9692    1.0406 H   0  0  0  0  0  0  0  0  0  0  0  0
   -1.4240    0.1866   -0.0585 C   0  0  0  0  0  0  0  0  0  0  0  0
   -2.8365   -1.1920   -0.8700 H   0  0  0  0  0  0  0  0  0  0  0  0
   -2.6542   -1.2469    0.8937 H   0  0  0  0  0  0  0  0  0  0  0  0
   -0.1351   -0.6975    0.0919 C   0  0  0  0  0  0  0  0  0  0  0  0
   -1.5111    0.7710    0.7215 H   0  0  0  0  0  0  0  0  0  0  0  0
   -1.3699    0.8958   -1.0073 H   0  0  0  0  0  0  0  0  0  0  0  0
   -0.2670   -1.2794    0.9910 H   0  0  0  0  0  0  0  0  0  0  0  0
    0.7301   -0.1268    0.1403 H   0  0  0  0  0  0  0  0  0  0  0  0
   -0.0389   -1.4284   -0.8032 H   0  0  0  0  0  0  0  0  0  0  0  0
  1  5  1  0  0  0  0
  2  1  1  0  0  0  0
  2  8  1  0  0  0  0
  3  1  1  0  0  0  0
  4  1  1  0  0  0  0
  6  2  1  0  0  0  0
  6  9  1  0  0  0  0
  6 10  1  0  0  0  0
  7  2  1  0  0  0  0
  9 13  1  0  0  0  0
  9 12  1  0  0  0  0
 11  6  1  0  0  0  0
 14  9  1  0  0  0  0
M  END
$$$$
