butane_opt
 OpenBabel08242015413D

 14 13  0  0  0  0  0  0  0  0999 V2000
   -3.9231    0.2647   -0.0442 C   0  0  0  0  0  0  0  0  0  0  0  0
   -2.7009   -0.6240    0.1150 C   0  0  0  0  0  0  0  0  0  0  0  0
   -4.8721   -0.3928   -0.1877 H   0  0  0  0  0  0  0  0  0  0  0  0
   -3.8343    0.7612   -0.9274 H   0  0  0  0  0  0  0  0  0  0  0  0
   -4.1220    1.0694    0.8754 H   0  0  0  0  0  0  0  0  0  0  0  0
   -1.4166    0.1959    0.0803 C   0  0  0  0  0  0  0  0  0  0  0  0
   -2.6627   -1.2357   -0.6343 H   0  0  0  0  0  0  0  0  0  0  0  0
   -2.7703   -1.2920    1.0228 H   0  0  0  0  0  0  0  0  0  0  0  0
   -0.1553   -0.6943   -0.0260 C   0  0  0  0  0  0  0  0  0  0  0  0
   -1.3932    0.8038    0.8749 H   0  0  0  0  0  0  0  0  0  0  0  0
   -1.5096    0.8949   -0.8590 H   0  0  0  0  0  0  0  0  0  0  0  0
   -0.0397   -1.2629    0.7985 H   0  0  0  0  0  0  0  0  0  0  0  0
    0.7312   -0.1090   -0.0768 H   0  0  0  0  0  0  0  0  0  0  0  0
   -0.1973   -1.4221   -0.9336 H   0  0  0  0  0  0  0  0  0  0  0  0
  1  2  1  0  0  0  0
  1  5  1  0  0  0  0
  2  8  1  0  0  0  0
  3  1  1  0  0  0  0
  4  1  1  0  0  0  0
  6  2  1  0  0  0  0
  6 10  1  0  0  0  0
  7  2  1  0  0  0  0
  9  6  1  0  0  0  0
  9 12  1  0  0  0  0
 11  6  1  0  0  0  0
 13  9  1  0  0  0  0
 14  9  1  0  0  0  0
M  END
$$$$
