butane_opt
 OpenBabel08242015413D

 14 13  0  0  0  0  0  0  0  0999 V2000
   -3.9164    0.2463    0.0285 C   0  0  0  0  0  0  0  0  0  0  0  0
   -2.6911   -0.6013    0.0457 C   0  0  0  0  0  0  0  0  0  0  0  0
   -4.8338   -0.3160   -0.1243 H   0  0  0  0  0  0  0  0  0  0  0  0
   -3.8899    0.7099   -0.7808 H   0  0  0  0  0  0  0  0  0  0  0  0
   -3.9985    1.0703    0.9514 H   0  0  0  0  0  0  0  0  0  0  0  0
   -1.4121    0.1945   -0.0043 C   0  0  0  0  0  0  0  0  0  0  0  0
   -2.7698   -1.2408   -0.7911 H   0  0  0  0  0  0  0  0  0  0  0  0
   -2.7975   -1.1876    0.9378 H   0  0  0  0  0  0  0  0  0  0  0  0
   -0.1803   -0.7134    0.0374 C   0  0  0  0  0  0  0  0  0  0  0  0
   -1.5020    0.7975    0.8132 H   0  0  0  0  0  0  0  0  0  0  0  0
   -1.3482    0.9410   -0.9957 H   0  0  0  0  0  0  0  0  0  0  0  0
   -0.0910   -1.3069    0.9212 H   0  0  0  0  0  0  0  0  0  0  0  0
    0.7621   -0.1144    0.0534 H   0  0  0  0  0  0  0  0  0  0  0  0
   -0.1565   -1.3485   -0.8172 H   0  0  0  0  0  0  0  0  0  0  0  0
  1  2  1  0  0  0  0
  1  5  1  0  0  0  0
  2  8  1  0  0  0  0
  3  1  1  0  0  0  0
  4  1  1  0  0  0  0
  6  9  1  0  0  0  0
  6  2  1  0  0  0  0
  6 10  1  0  0  0  0
  7  2  1  0  0  0  0
  9 13  1  0  0  0  0
  9 12  1  0  0  0  0
 11  6  1  0  0  0  0
 14  9  1  0  0  0  0
M  END
$$$$
