butane_opt
 OpenBabel08242015413D

 14 13  0  0  0  0  0  0  0  0999 V2000
   -3.9750    0.2925   -0.0472 C   0  0  0  0  0  0  0  0  0  0  0  0
   -2.7077   -0.6461    0.1278 C   0  0  0  0  0  0  0  0  0  0  0  0
   -4.8524   -0.2839   -0.1960 H   0  0  0  0  0  0  0  0  0  0  0  0
   -3.8813    0.7919   -0.9046 H   0  0  0  0  0  0  0  0  0  0  0  0
   -4.0699    1.0773    0.9099 H   0  0  0  0  0  0  0  0  0  0  0  0
   -1.3752    0.1632    0.0445 C   0  0  0  0  0  0  0  0  0  0  0  0
   -2.6456   -1.2336   -0.6224 H   0  0  0  0  0  0  0  0  0  0  0  0
   -2.7478   -1.3467    1.0589 H   0  0  0  0  0  0  0  0  0  0  0  0
   -0.1492   -0.6812   -0.0295 C   0  0  0  0  0  0  0  0  0  0  0  0
   -1.3454    0.8932    0.9353 H   0  0  0  0  0  0  0  0  0  0  0  0
   -1.4443    0.7034   -0.8096 H   0  0  0  0  0  0  0  0  0  0  0  0
   -0.1991   -1.1634    0.8181 H   0  0  0  0  0  0  0  0  0  0  0  0
    0.7814   -0.0633   -0.0282 H   0  0  0  0  0  0  0  0  0  0  0  0
   -0.1463   -1.3754   -0.8722 H   0  0  0  0  0  0  0  0  0  0  0  0
  1  2  1  0  0  0  0
  1  5  1  0  0  0  0
  2  8  1  0  0  0  0
  3  1  1  0  0  0  0
  4  1  1  0  0  0  0
  6  2  1  0  0  0  0
  6 10  1  0  0  0  0
  7  2  1  0  0  0  0
  9 13  1  0  0  0  0
  9  6  1  0  0  0  0
  9 12  1  0  0  0  0
 11  6  1  0  0  0  0
 14  9  1  0  0  0  0
M  END
$$$$
