butane_opt
 OpenBabel08242015413D

 14 13  0  0  0  0  0  0  0  0999 V2000
   -3.9377    0.2377    0.0723 C   0  0  0  0  0  0  0  0  0  0  0  0
   -2.6956   -0.5773    0.0111 C   0  0  0  0  0  0  0  0  0  0  0  0
   -4.8906   -0.3741   -0.0790 H   0  0  0  0  0  0  0  0  0  0  0  0
   -3.8897    0.8253   -0.8178 H   0  0  0  0  0  0  0  0  0  0  0  0
   -3.8786    1.0023    0.9747 H   0  0  0  0  0  0  0  0  0  0  0  0
   -1.4113    0.1892   -0.0542 C   0  0  0  0  0  0  0  0  0  0  0  0
   -2.7272   -1.2605   -0.8229 H   0  0  0  0  0  0  0  0  0  0  0  0
   -2.6881   -1.1666    0.8433 H   0  0  0  0  0  0  0  0  0  0  0  0
   -0.1738   -0.7132    0.0719 C   0  0  0  0  0  0  0  0  0  0  0  0
   -1.4039    0.8707    0.7611 H   0  0  0  0  0  0  0  0  0  0  0  0
   -1.3514    0.8016   -0.9609 H   0  0  0  0  0  0  0  0  0  0  0  0
   -0.2108   -1.3393    0.9726 H   0  0  0  0  0  0  0  0  0  0  0  0
    0.7198   -0.1035    0.1026 H   0  0  0  0  0  0  0  0  0  0  0  0
   -0.0718   -1.3755   -0.7436 H   0  0  0  0  0  0  0  0  0  0  0  0
  1  5  1  0  0  0  0
  2  1  1  0  0  0  0
  2  8  1  0  0  0  0
  3  1  1  0  0  0  0
  4  1  1  0  0  0  0
  6  2  1  0  0  0  0
  6  9  1  0  0  0  0
  6 10  1  0  0  0  0
  7  2  1  0  0  0  0
  9 13  1  0  0  0  0
  9 12  1  0  0  0  0
 11  6  1  0  0  0  0
 14  9  1  0  0  0  0
M  END
$$$$
