butane_opt
 OpenBabel08242015413D

 14 13  0  0  0  0  0  0  0  0999 V2000
   -3.9328    0.2606    0.0049 C   0  0  0  0  0  0  0  0  0  0  0  0
   -2.6974   -0.6009    0.0794 C   0  0  0  0  0  0  0  0  0  0  0  0
   -4.8501   -0.3750    0.0269 H   0  0  0  0  0  0  0  0  0  0  0  0
   -3.9079    0.9184   -0.9508 H   0  0  0  0  0  0  0  0  0  0  0  0
   -4.0513    0.8376    0.8010 H   0  0  0  0  0  0  0  0  0  0  0  0
   -1.4235    0.1809    0.0095 C   0  0  0  0  0  0  0  0  0  0  0  0
   -2.7191   -1.2844   -0.7817 H   0  0  0  0  0  0  0  0  0  0  0  0
   -2.7074   -1.2238    0.9542 H   0  0  0  0  0  0  0  0  0  0  0  0
   -0.1478   -0.7095    0.0222 C   0  0  0  0  0  0  0  0  0  0  0  0
   -1.3270    0.9069    0.9001 H   0  0  0  0  0  0  0  0  0  0  0  0
   -1.4311    0.8692   -0.8851 H   0  0  0  0  0  0  0  0  0  0  0  0
   -0.2350   -1.1548    0.7559 H   0  0  0  0  0  0  0  0  0  0  0  0
    0.7877   -0.0626    0.1318 H   0  0  0  0  0  0  0  0  0  0  0  0
   -0.1471   -1.4874   -0.9210 H   0  0  0  0  0  0  0  0  0  0  0  0
  1  3  1  0  0  0  0
  1  2  1  0  0  0  0
  1  5  1  0  0  0  0
  2  8  1  0  0  0  0
  4  1  1  0  0  0  0
  6  9  1  0  0  0  0
  6  2  1  0  0  0  0
  6 10  1  0  0  0  0
  7  2  1  0  0  0  0
  9 13  1  0  0  0  0
  9 12  1  0  0  0  0
 11  6  1  0  0  0  0
 14  9  1  0  0  0  0
M  END
$$$$
