butane_opt
 OpenBabel08242015413D

 14 13  0  0  0  0  0  0  0  0999 V2000
   -3.9621    0.2623   -0.0479 C   0  0  0  0  0  0  0  0  0  0  0  0
   -2.7049   -0.6123    0.1132 C   0  0  0  0  0  0  0  0  0  0  0  0
   -4.9573   -0.3900   -0.2582 H   0  0  0  0  0  0  0  0  0  0  0  0
   -3.8482    0.7681   -0.8546 H   0  0  0  0  0  0  0  0  0  0  0  0
   -4.0797    1.0249    0.8443 H   0  0  0  0  0  0  0  0  0  0  0  0
   -1.3927    0.1985    0.0788 C   0  0  0  0  0  0  0  0  0  0  0  0
   -2.7355   -1.1246   -0.6465 H   0  0  0  0  0  0  0  0  0  0  0  0
   -2.7711   -1.3432    1.1104 H   0  0  0  0  0  0  0  0  0  0  0  0
   -0.1419   -0.7100   -0.0309 C   0  0  0  0  0  0  0  0  0  0  0  0
   -1.3123    0.9168    0.9448 H   0  0  0  0  0  0  0  0  0  0  0  0
   -1.3876    0.8679   -0.8496 H   0  0  0  0  0  0  0  0  0  0  0  0
   -0.0596   -1.2842    0.8428 H   0  0  0  0  0  0  0  0  0  0  0  0
    0.7572   -0.1272   -0.1138 H   0  0  0  0  0  0  0  0  0  0  0  0
   -0.1966   -1.4726   -0.9458 H   0  0  0  0  0  0  0  0  0  0  0  0
  1  2  1  0  0  0  0
  1  5  1  0  0  0  0
  2  8  1  0  0  0  0
  3  1  1  0  0  0  0
  4  1  1  0  0  0  0
  6  2  1  0  0  0  0
  6 10  1  0  0  0  0
  7  2  1  0  0  0  0
  9  6  1  0  0  0  0
  9 12  1  0  0  0  0
 11  6  1  0  0  0  0
 13  9  1  0  0  0  0
 14  9  1  0  0  0  0
M  END
$$$$
