butane_opt
 OpenBabel08242015413D

 14 13  0  0  0  0  0  0  0  0999 V2000
   -3.9454    0.2547    0.0604 C   0  0  0  0  0  0  0  0  0  0  0  0
   -2.7059   -0.6126   -0.0145 C   0  0  0  0  0  0  0  0  0  0  0  0
   -4.8685   -0.3369    0.1493 H   0  0  0  0  0  0  0  0  0  0  0  0
   -4.1032    0.9405   -0.8631 H   0  0  0  0  0  0  0  0  0  0  0  0
   -3.9046    0.8748    0.8806 H   0  0  0  0  0  0  0  0  0  0  0  0
   -1.4107    0.1911   -0.0236 C   0  0  0  0  0  0  0  0  0  0  0  0
   -2.7483   -1.3155   -0.8785 H   0  0  0  0  0  0  0  0  0  0  0  0
   -2.6885   -1.1626    0.8446 H   0  0  0  0  0  0  0  0  0  0  0  0
   -0.1423   -0.7008    0.0652 C   0  0  0  0  0  0  0  0  0  0  0  0
   -1.3759    0.8740    0.8307 H   0  0  0  0  0  0  0  0  0  0  0  0
   -1.4068    0.8482   -0.9167 H   0  0  0  0  0  0  0  0  0  0  0  0
   -0.1861   -1.3558    1.0119 H   0  0  0  0  0  0  0  0  0  0  0  0
    0.7821   -0.0960    0.0758 H   0  0  0  0  0  0  0  0  0  0  0  0
   -0.0645   -1.3397   -0.7502 H   0  0  0  0  0  0  0  0  0  0  0  0
  1  3  1  0  0  0  0
  1  5  1  0  0  0  0
  2  1  1  0  0  0  0
  2  8  1  0  0  0  0
  4  1  1  0  0  0  0
  6  2  1  0  0  0  0
  6  9  1  0  0  0  0
  6 10  1  0  0  0  0
  7  2  1  0  0  0  0
  9 13  1  0  0  0  0
  9 12  1  0  0  0  0
 11  6  1  0  0  0  0
 14  9  1  0  0  0  0
M  END
$$$$
