14
butane_opt
C  -3.951964   0.291342  -0.014001
C  -2.692816  -0.629067   0.061657
H  -4.869790  -0.300265  -0.033187
H  -3.947793   0.831134  -0.848069
H  -3.995441   0.937922   0.862068
C  -1.393036   0.162969   0.044984
H  -2.606115  -1.300800  -0.784988
H  -2.708607  -1.229065   0.924535
C  -0.187352  -0.688136  -0.005747
H  -1.305043   0.889138   0.977466
H  -1.343302   0.674458  -0.772474
H  -0.082889  -1.472404   1.020081
H   0.788378   0.014320  -0.176520
H  -0.264213  -1.148526  -0.747392
