14
butane_opt
C  -3.937730   0.237722   0.072274
C  -2.695624  -0.577257   0.011112
H  -4.890638  -0.374107  -0.078954
H  -3.889669   0.825298  -0.817759
H  -3.878566   1.002326   0.974734
C  -1.411289   0.189189  -0.054233
H  -2.727201  -1.260543  -0.822861
H  -2.688139  -1.166602   0.843276
C  -0.173825  -0.713241   0.071924
H  -1.403934   0.870676   0.761143
H  -1.351420   0.801607  -0.960912
H  -0.210805  -1.339305   0.972609
H   0.719823  -0.103471   0.102611
H  -0.071839  -1.375482  -0.743627
