14
butane_opt
C  -3.957087   0.244602   0.056484
C  -2.693979  -0.606445  -0.034161
H  -4.858651  -0.392235   0.297732
H  -4.107845   0.915372  -0.888911
H  -3.752820   0.853964   0.894254
C  -1.401137   0.229342  -0.008679
H  -2.738044  -1.305651  -0.885597
H  -2.703352  -1.216785   0.809991
C  -0.158650  -0.708920   0.061695
H  -1.494787   0.892094   0.795630
H  -1.386873   0.841069  -0.904756
H  -0.092817  -1.461135   1.046136
H   0.692886  -0.154857   0.106133
H  -0.050219  -1.341293  -0.727328
