14
butane_opt
C  -3.928760   0.248107  -0.015025
C  -2.709042  -0.599547   0.089109
H  -4.835498  -0.356554   0.004674
H  -3.862355   0.878595  -0.906776
H  -3.940644   0.855925   0.786178
C  -1.401214   0.213838   0.026689
H  -2.670619  -1.266024  -0.753917
H  -2.706874  -1.206239   1.008398
C  -0.183087  -0.717575   0.000482
H  -1.271940   0.908636   0.901964
H  -1.494036   0.835484  -0.858708
H  -0.124362  -1.258069   0.835813
H   0.675390  -0.139095   0.159891
H  -0.120066  -1.481642  -0.950895
