14
butane_opt
C  -3.939118   0.242195  -0.047946
C  -2.715443  -0.607737   0.095511
H  -4.803948  -0.330919   0.001957
H  -3.828202   0.923801  -1.017195
H  -4.016404   0.857913   0.789106
C  -1.423268   0.219462   0.101883
H  -2.683720  -1.247717  -0.711867
H  -2.725957  -1.263161   0.965563
C  -0.140212  -0.717155  -0.043606
H  -1.344167   0.997470   1.006510
H  -1.518533   0.763165  -0.737226
H  -0.028104  -1.418479   0.877872
H   0.744503  -0.126680  -0.165810
H  -0.200874  -1.259956  -0.826345
