14
butane_opt
C  -3.972071   0.267139  -0.016940
C  -2.711882  -0.630158   0.058856
H  -4.823647  -0.266417   0.248538
H  -4.103343   1.081391  -1.064526
H  -3.879805   0.822956   0.740184
C  -1.397330   0.169867   0.061275
H  -2.653002  -1.346961  -0.807510
H  -2.708656  -1.249996   0.972852
C  -0.138777  -0.680353   0.003731
H  -1.334120   0.832602   0.918340
H  -1.410390   0.844157  -0.860755
H  -0.073668  -1.152092   0.761258
H   0.767442  -0.103853   0.119881
H  -0.167862  -1.436416  -0.890865
