14
butane_opt
C  -3.941040   0.262078  -0.040595
C  -2.695317  -0.600692   0.109856
H  -4.885433  -0.427384  -0.153792
H  -3.757271   0.789489  -0.904074
H  -3.998618   1.039939   0.882169
C  -1.394573   0.179418   0.052982
H  -2.709361  -1.187727  -0.658071
H  -2.701862  -1.316045   1.070281
C  -0.181782  -0.704837  -0.011438
H  -1.411681   0.913094   0.907339
H  -1.426182   0.892100  -0.855235
H  -0.086289  -1.224944   0.805135
H   0.743327  -0.089927  -0.029364
H  -0.235346  -1.507495  -0.961154
