14
butane_opt
C  -3.959240   0.274368  -0.006990
C  -2.701638  -0.629434   0.067698
H  -4.828856  -0.274185  -0.033905
H  -3.973628   0.900888  -0.916874
H  -3.988247   0.933324   0.841100
C  -1.395905   0.182214   0.039726
H  -2.678461  -1.269530  -0.740505
H  -2.759965  -1.291900   0.986321
C  -0.156701  -0.690203   0.005561
H  -1.312717   0.805899   0.892403
H  -1.411706   0.823806  -0.860044
H  -0.152351  -1.241671   0.854537
H   0.813098  -0.044009   0.026366
H  -0.179157  -1.443939  -0.889613
