butane_opt
 OpenBabel08242015413D

 14 13  0  0  0  0  0  0  0  0999 V2000
   -3.9721    0.2671   -0.0169 C   0  0  0  0  0  0  0  0  0  0  0  0
   -2.7119   -0.6302    0.0589 C   0  0  0  0  0  0  0  0  0  0  0  0
   -4.8236   -0.2664    0.2485 H   0  0  0  0  0  0  0  0  0  0  0  0
   -4.1033    1.0814   -1.0645 H   0  0  0  0  0  0  0  0  0  0  0  0
   -3.8798    0.8230    0.7402 H   0  0  0  0  0  0  0  0  0  0  0  0
   -1.3973    0.1699    0.0613 C   0  0  0  0  0  0  0  0  0  0  0  0
   -2.6530   -1.3470   -0.8075 H   0  0  0  0  0  0  0  0  0  0  0  0
   -2.7087   -1.2500    0.9729 H   0  0  0  0  0  0  0  0  0  0  0  0
   -0.1388   -0.6804    0.0037 C   0  0  0  0  0  0  0  0  0  0  0  0
   -1.3341    0.8326    0.9183 H   0  0  0  0  0  0  0  0  0  0  0  0
   -1.4104    0.8442   -0.8608 H   0  0  0  0  0  0  0  0  0  0  0  0
   -0.0737   -1.1521    0.7613 H   0  0  0  0  0  0  0  0  0  0  0  0
    0.7674   -0.1039    0.1199 H   0  0  0  0  0  0  0  0  0  0  0  0
   -0.1679   -1.4364   -0.8909 H   0  0  0  0  0  0  0  0  0  0  0  0
  1  2  1  0  0  0  0
  1  3  1  0  0  0  0
  1  5  1  0  0  0  0
  2  6  1  0  0  0  0
  2  8  1  0  0  0  0
  4  1  1  0  0  0  0
  6 10  1  0  0  0  0
  7  2  1  0  0  0  0
  9  6  1  0  0  0  0
  9 13  1  0  0  0  0
  9 12  1  0  0  0  0
 11  6  1  0  0  0  0
 14  9  1  0  0  0  0
M  END
$$$$
