butane_opt
 OpenBabel08242015413D

 14 13  0  0  0  0  0  0  0  0999 V2000
   -3.9355    0.2834   -0.0334 C   0  0  0  0  0  0  0  0  0  0  0  0
   -2.6962   -0.6321    0.0990 C   0  0  0  0  0  0  0  0  0  0  0  0
   -4.8269   -0.3319   -0.1694 H   0  0  0  0  0  0  0  0  0  0  0  0
   -3.8497    0.8706   -0.9406 H   0  0  0  0  0  0  0  0  0  0  0  0
   -4.0759    1.0259    0.8767 H   0  0  0  0  0  0  0  0  0  0  0  0
   -1.3966    0.1492    0.0632 C   0  0  0  0  0  0  0  0  0  0  0  0
   -2.6067   -1.2128   -0.6903 H   0  0  0  0  0  0  0  0  0  0  0  0
   -2.7058   -1.3473    1.0253 H   0  0  0  0  0  0  0  0  0  0  0  0
   -0.1884   -0.6678   -0.0338 C   0  0  0  0  0  0  0  0  0  0  0  0
   -1.2056    0.9345    1.0059 H   0  0  0  0  0  0  0  0  0  0  0  0
   -1.4795    0.7658   -0.7833 H   0  0  0  0  0  0  0  0  0  0  0  0
   -0.1448   -1.3678    0.9255 H   0  0  0  0  0  0  0  0  0  0  0  0
    0.7062   -0.0695   -0.0734 H   0  0  0  0  0  0  0  0  0  0  0  0
   -0.2369   -1.3342   -0.8568 H   0  0  0  0  0  0  0  0  0  0  0  0
  1  2  1  0  0  0  0
  1  5  1  0  0  0  0
  2  8  1  0  0  0  0
  3  1  1  0  0  0  0
  4  1  1  0  0  0  0
  6  2  1  0  0  0  0
  6 10  1  0  0  0  0
  7  2  1  0  0  0  0
  9  6  1  0  0  0  0
  9 12  1  0  0  0  0
 11  6  1  0  0  0  0
 13  9  1  0  0  0  0
 14  9  1  0  0  0  0
M  END
$$$$
