14
butane_opt
C  -3.937733   0.283418  -0.018389
C  -2.696652  -0.619380   0.092675
H  -4.795049  -0.281130  -0.206161
H  -3.854532   0.855239  -0.876368
H  -4.089078   1.036295   0.846447
C  -1.405229   0.143099   0.041815
H  -2.676921  -1.253722  -0.682660
H  -2.744707  -1.324587   1.025525
C  -0.179839  -0.681243  -0.020270
H  -1.254192   0.833573   0.934822
H  -1.448597   0.711664  -0.771629
H  -0.136929  -1.254320   0.864431
H   0.838921  -0.015629  -0.023841
H  -0.244269  -1.267551  -0.807491
