butane_opt
 OpenBabel08242015413D

 14 13  0  0  0  0  0  0  0  0999 V2000
   -3.9479    0.2774    0.0383 C   0  0  0  0  0  0  0  0  0  0  0  0
   -2.7135   -0.6475    0.0319 C   0  0  0  0  0  0  0  0  0  0  0  0
   -4.8061   -0.2548   -0.2213 H   0  0  0  0  0  0  0  0  0  0  0  0
   -4.0009    0.7003   -0.6848 H   0  0  0  0  0  0  0  0  0  0  0  0
   -4.0340    1.2807    1.0833 H   0  0  0  0  0  0  0  0  0  0  0  0
   -1.3885    0.1759   -0.0288 C   0  0  0  0  0  0  0  0  0  0  0  0
   -2.7257   -1.4056   -0.8234 H   0  0  0  0  0  0  0  0  0  0  0  0
   -2.7171   -1.2397    0.9029 H   0  0  0  0  0  0  0  0  0  0  0  0
   -0.1631   -0.6813    0.0664 C   0  0  0  0  0  0  0  0  0  0  0  0
   -1.3836    0.6944    0.7064 H   0  0  0  0  0  0  0  0  0  0  0  0
   -1.3872    0.9289   -0.9999 H   0  0  0  0  0  0  0  0  0  0  0  0
   -0.0976   -1.3453    1.0175 H   0  0  0  0  0  0  0  0  0  0  0  0
    0.7917   -0.0345   -0.0556 H   0  0  0  0  0  0  0  0  0  0  0  0
   -0.1243   -1.2776   -0.7494 H   0  0  0  0  0  0  0  0  0  0  0  0
  1  5  1  0  0  0  0
  2  1  1  0  0  0  0
  2  8  1  0  0  0  0
  3  1  1  0  0  0  0
  4  1  1  0  0  0  0
  6  2  1  0  0  0  0
  6  9  1  0  0  0  0
  6 10  1  0  0  0  0
  7  2  1  0  0  0  0
  9 12  1  0  0  0  0
 11  6  1  0  0  0  0
 13  9  1  0  0  0  0
 14  9  1  0  0  0  0
M  END
$$$$
