butane_opt
 OpenBabel08242015413D

 14 13  0  0  0  0  0  0  0  0999 V2000
   -3.9603    0.2526    0.0768 C   0  0  0  0  0  0  0  0  0  0  0  0
   -2.7029   -0.6045   -0.0071 C   0  0  0  0  0  0  0  0  0  0  0  0
   -4.8887   -0.3177    0.0833 H   0  0  0  0  0  0  0  0  0  0  0  0
   -4.0548    0.8752   -0.7763 H   0  0  0  0  0  0  0  0  0  0  0  0
   -3.9628    0.9529    0.9798 H   0  0  0  0  0  0  0  0  0  0  0  0
   -1.3964    0.1787   -0.0641 C   0  0  0  0  0  0  0  0  0  0  0  0
   -2.7706   -1.4011   -0.9664 H   0  0  0  0  0  0  0  0  0  0  0  0
   -2.7017   -1.1348    0.8468 H   0  0  0  0  0  0  0  0  0  0  0  0
   -0.1268   -0.6917    0.0967 C   0  0  0  0  0  0  0  0  0  0  0  0
   -1.4546    0.8379    0.7338 H   0  0  0  0  0  0  0  0  0  0  0  0
   -1.4098    0.8835   -1.0385 H   0  0  0  0  0  0  0  0  0  0  0  0
   -0.2416   -1.2966    0.9842 H   0  0  0  0  0  0  0  0  0  0  0  0
    0.7517   -0.1133    0.1111 H   0  0  0  0  0  0  0  0  0  0  0  0
   -0.0408   -1.3905   -0.7463 H   0  0  0  0  0  0  0  0  0  0  0  0
  1  3  1  0  0  0  0
  1  5  1  0  0  0  0
  2  1  1  0  0  0  0
  2  8  1  0  0  0  0
  4  1  1  0  0  0  0
  6  2  1  0  0  0  0
  6  9  1  0  0  0  0
  6 10  1  0  0  0  0
  7  2  1  0  0  0  0
  9 13  1  0  0  0  0
  9 12  1  0  0  0  0
 11  6  1  0  0  0  0
 14  9  1  0  0  0  0
M  END
$$$$
