14
butane_opt
C  -3.960707   0.281606   0.040287
C  -2.704670  -0.634883   0.031596
H  -4.847981  -0.239838  -0.156062
H  -3.911888   0.693236  -0.749676
H  -4.058146   1.095486   0.989653
C  -1.391573   0.168835  -0.012072
H  -2.800098  -1.324838  -0.839776
H  -2.679547  -1.164275   0.844834
C  -0.157016  -0.695825   0.050964
H  -1.337413   0.752926   0.807309
H  -1.368861   0.900734  -0.988738
H  -0.111717  -1.396157   0.974087
H   0.838445  -0.036034  -0.021131
H  -0.194164  -1.180258  -0.713666
