14
butane_opt
C  -3.979282   0.285244   0.068127
C  -2.702627  -0.636811   0.003633
H  -4.899412  -0.311342   0.108200
H  -4.062016   0.923030  -0.833568
H  -3.941997   0.987312   0.960627
C  -1.383040   0.163284  -0.059098
H  -2.786824  -1.411982  -0.950584
H  -2.597362  -1.189492   0.847497
C  -0.143366  -0.688063   0.083191
H  -1.327860   0.795152   0.780717
H  -1.264321   0.875733  -0.988055
H  -0.320468  -1.238588   0.959654
H   0.755467  -0.086343   0.200035
H  -0.064983  -1.309786  -0.802634
