14
butane_opt
C  -3.930643   0.271093   0.085501
C  -2.697002  -0.610926  -0.055499
H  -4.869430  -0.371513   0.220232
H  -4.142563   0.995248  -0.846599
H  -3.877966   0.844830   0.921414
C  -1.412954   0.165109  -0.041692
H  -2.739512  -1.361090  -0.972347
H  -2.689199  -1.221733   0.866885
C  -0.154201  -0.681591   0.088926
H  -1.475215   0.878443   0.814015
H  -1.395559   0.758155  -0.908044
H  -0.192003  -1.396786   1.099075
H   0.781237  -0.049801   0.034362
H  -0.085428  -1.265754  -0.721760
