14
butane_opt
C  -3.941408   0.258128  -0.032271
C  -2.718715  -0.596350   0.085151
H  -4.919650  -0.402742  -0.089728
H  -3.898347   0.866451  -0.924308
H  -4.067772   0.893424   0.810397
C  -1.383992   0.197151   0.060981
H  -2.679659  -1.216153  -0.715079
H  -2.789491  -1.233609   1.052225
C  -0.154177  -0.706826  -0.012677
H  -1.349991   0.988940   0.986021
H  -1.468888   0.687981  -0.714188
H  -0.019118  -1.390455   0.912844
H   0.756621  -0.177591  -0.241663
H  -0.191289  -1.324637  -0.851782
