butane_opt
 OpenBabel08242015413D

 14 13  0  0  0  0  0  0  0  0999 V2000
   -3.9218    0.2523   -0.0219 C   0  0  0  0  0  0  0  0  0  0  0  0
   -2.7094   -0.5971    0.0895 C   0  0  0  0  0  0  0  0  0  0  0  0
   -4.8610   -0.3471   -0.1119 H   0  0  0  0  0  0  0  0  0  0  0  0
   -3.9047    0.8101   -0.8932 H   0  0  0  0  0  0  0  0  0  0  0  0
   -4.0099    1.0154    0.8727 H   0  0  0  0  0  0  0  0  0  0  0  0
   -1.4158    0.1925    0.0395 C   0  0  0  0  0  0  0  0  0  0  0  0
   -2.6765   -1.2598   -0.7224 H   0  0  0  0  0  0  0  0  0  0  0  0
   -2.7642   -1.3059    1.0476 H   0  0  0  0  0  0  0  0  0  0  0  0
   -0.1596   -0.6996   -0.0041 C   0  0  0  0  0  0  0  0  0  0  0  0
   -1.3827    0.8781    0.9052 H   0  0  0  0  0  0  0  0  0  0  0  0
   -1.4353    0.7778   -0.8290 H   0  0  0  0  0  0  0  0  0  0  0  0
   -0.1154   -1.2957    0.8884 H   0  0  0  0  0  0  0  0  0  0  0  0
    0.7552   -0.1183   -0.0485 H   0  0  0  0  0  0  0  0  0  0  0  0
   -0.1471   -1.4055   -0.9045 H   0  0  0  0  0  0  0  0  0  0  0  0
  1  2  1  0  0  0  0
  1  5  1  0  0  0  0
  2  8  1  0  0  0  0
  3  1  1  0  0  0  0
  4  1  1  0  0  0  0
  6  2  1  0  0  0  0
  6 10  1  0  0  0  0
  7  2  1  0  0  0  0
  9  6  1  0  0  0  0
  9 12  1  0  0  0  0
 11  6  1  0  0  0  0
 13  9  1  0  0  0  0
 14  9  1  0  0  0  0
M  END
$$$$
