butane_opt
 OpenBabel08242015413D

 14 13  0  0  0  0  0  0  0  0999 V2000
   -3.9109    0.2285   -0.0351 C   0  0  0  0  0  0  0  0  0  0  0  0
   -2.6818   -0.5853    0.0639 C   0  0  0  0  0  0  0  0  0  0  0  0
   -4.8538   -0.3660    0.0956 H   0  0  0  0  0  0  0  0  0  0  0  0
   -3.9208    0.9540   -0.9701 H   0  0  0  0  0  0  0  0  0  0  0  0
   -3.9808    0.8827    0.8312 H   0  0  0  0  0  0  0  0  0  0  0  0
   -1.4330    0.2057    0.0804 C   0  0  0  0  0  0  0  0  0  0  0  0
   -2.7148   -1.1799   -0.7411 H   0  0  0  0  0  0  0  0  0  0  0  0
   -2.8152   -1.3097    1.0167 H   0  0  0  0  0  0  0  0  0  0  0  0
   -0.1610   -0.7085   -0.0195 C   0  0  0  0  0  0  0  0  0  0  0  0
   -1.4625    0.9698    0.9609 H   0  0  0  0  0  0  0  0  0  0  0  0
   -1.4095    0.7726   -0.7401 H   0  0  0  0  0  0  0  0  0  0  0  0
   -0.0712   -1.3582    0.9130 H   0  0  0  0  0  0  0  0  0  0  0  0
    0.7139   -0.1797   -0.1354 H   0  0  0  0  0  0  0  0  0  0  0  0
   -0.2450   -1.3532   -0.8729 H   0  0  0  0  0  0  0  0  0  0  0  0
  1  2  1  0  0  0  0
  1  3  1  0  0  0  0
  1  5  1  0  0  0  0
  2  6  1  0  0  0  0
  2  8  1  0  0  0  0
  4  1  1  0  0  0  0
  6 10  1  0  0  0  0
  7  2  1  0  0  0  0
  9  6  1  0  0  0  0
  9 12  1  0  0  0  0
 11  6  1  0  0  0  0
 13  9  1  0  0  0  0
 14  9  1  0  0  0  0
M  END
$$$$
