butane_opt
 OpenBabel08242015413D

 14 13  0  0  0  0  0  0  0  0999 V2000
   -3.9414    0.2581   -0.0323 C   0  0  0  0  0  0  0  0  0  0  0  0
   -2.7187   -0.5964    0.0852 C   0  0  0  0  0  0  0  0  0  0  0  0
   -4.9196   -0.4027   -0.0897 H   0  0  0  0  0  0  0  0  0  0  0  0
   -3.8983    0.8665   -0.9243 H   0  0  0  0  0  0  0  0  0  0  0  0
   -4.0678    0.8934    0.8104 H   0  0  0  0  0  0  0  0  0  0  0  0
   -1.3840    0.1972    0.0610 C   0  0  0  0  0  0  0  0  0  0  0  0
   -2.6797   -1.2162   -0.7151 H   0  0  0  0  0  0  0  0  0  0  0  0
   -2.7895   -1.2336    1.0522 H   0  0  0  0  0  0  0  0  0  0  0  0
   -0.1542   -0.7068   -0.0127 C   0  0  0  0  0  0  0  0  0  0  0  0
   -1.3500    0.9889    0.9860 H   0  0  0  0  0  0  0  0  0  0  0  0
   -1.4689    0.6880   -0.7142 H   0  0  0  0  0  0  0  0  0  0  0  0
   -0.0191   -1.3905    0.9128 H   0  0  0  0  0  0  0  0  0  0  0  0
    0.7566   -0.1776   -0.2417 H   0  0  0  0  0  0  0  0  0  0  0  0
   -0.1913   -1.3246   -0.8518 H   0  0  0  0  0  0  0  0  0  0  0  0
  1  2  1  0  0  0  0
  1  5  1  0  0  0  0
  2  8  1  0  0  0  0
  3  1  1  0  0  0  0
  4  1  1  0  0  0  0
  6  2  1  0  0  0  0
  6 10  1  0  0  0  0
  7  2  1  0  0  0  0
  9  6  1  0  0  0  0
  9 12  1  0  0  0  0
 11  6  1  0  0  0  0
 13  9  1  0  0  0  0
 14  9  1  0  0  0  0
M  END
$$$$
