14
butane_opt
C  -3.920440   0.253360   0.082142
C  -2.700734  -0.599089  -0.010319
H  -4.851731  -0.329218   0.052030
H  -4.010351   0.778217  -0.745313
H  -3.822117   0.943983   0.956454
C  -1.412041   0.199265  -0.088561
H  -2.747390  -1.328951  -0.900146
H  -2.613288  -1.221313   0.870117
C  -0.176305  -0.701400   0.094186
H  -1.393042   0.864219   0.755195
H  -1.396132   0.870902  -0.954943
H  -0.325918  -1.308085   1.007244
H   0.675758  -0.142529   0.226185
H  -0.013300  -1.442889  -0.763497
