butane_opt
 OpenBabel08242015413D

 14 13  0  0  0  0  0  0  0  0999 V2000
   -3.9186    0.2516   -0.0183 C   0  0  0  0  0  0  0  0  0  0  0  0
   -2.7008   -0.5942    0.0906 C   0  0  0  0  0  0  0  0  0  0  0  0
   -4.9024   -0.3925   -0.1546 H   0  0  0  0  0  0  0  0  0  0  0  0
   -3.8600    0.7377   -0.8179 H   0  0  0  0  0  0  0  0  0  0  0  0
   -3.9537    1.0175    0.8500 H   0  0  0  0  0  0  0  0  0  0  0  0
   -1.4199    0.1915    0.0418 C   0  0  0  0  0  0  0  0  0  0  0  0
   -2.6572   -1.1977   -0.6783 H   0  0  0  0  0  0  0  0  0  0  0  0
   -2.7680   -1.2870    1.0162 H   0  0  0  0  0  0  0  0  0  0  0  0
   -0.1498   -0.7076   -0.0141 C   0  0  0  0  0  0  0  0  0  0  0  0
   -1.4859    0.8772    0.8573 H   0  0  0  0  0  0  0  0  0  0  0  0
   -1.5002    0.8351   -0.8580 H   0  0  0  0  0  0  0  0  0  0  0  0
   -0.1980   -1.2697    0.8615 H   0  0  0  0  0  0  0  0  0  0  0  0
    0.7375   -0.1329    0.0282 H   0  0  0  0  0  0  0  0  0  0  0  0
   -0.1555   -1.3748   -0.8591 H   0  0  0  0  0  0  0  0  0  0  0  0
  1  2  1  0  0  0  0
  1  5  1  0  0  0  0
  2  8  1  0  0  0  0
  3  1  1  0  0  0  0
  4  1  1  0  0  0  0
  6  2  1  0  0  0  0
  6 10  1  0  0  0  0
  7  2  1  0  0  0  0
  9 13  1  0  0  0  0
  9  6  1  0  0  0  0
  9 12  1  0  0  0  0
 11  6  1  0  0  0  0
 14  9  1  0  0  0  0
M  END
$$$$
