14
butane_opt
C  -3.954384   0.253144   0.052836
C  -2.714639  -0.599660   0.002643
H  -4.855244  -0.342890   0.121667
H  -3.990960   0.856402  -0.828103
H  -3.869854   0.943052   0.933625
C  -1.405907   0.195252  -0.036865
H  -2.746076  -1.297770  -0.876344
H  -2.725043  -1.206701   0.863651
C  -0.144624  -0.706248   0.072194
H  -1.373822   0.848172   0.783605
H  -1.351414   0.838019  -0.932528
H  -0.139239  -1.305131   0.941550
H   0.735725  -0.154627   0.119790
H  -0.068807  -1.362271  -0.768121
