butane_opt
 OpenBabel08242015413D

 14 13  0  0  0  0  0  0  0  0999 V2000
   -3.9420    0.2531    0.0619 C   0  0  0  0  0  0  0  0  0  0  0  0
   -2.6979   -0.6117   -0.0015 C   0  0  0  0  0  0  0  0  0  0  0  0
   -4.8555   -0.3324    0.1565 H   0  0  0  0  0  0  0  0  0  0  0  0
   -4.0733    0.9273   -0.8403 H   0  0  0  0  0  0  0  0  0  0  0  0
   -3.8480    0.8544    0.9118 H   0  0  0  0  0  0  0  0  0  0  0  0
   -1.4074    0.2078   -0.0408 C   0  0  0  0  0  0  0  0  0  0  0  0
   -2.8083   -1.4117   -0.9210 H   0  0  0  0  0  0  0  0  0  0  0  0
   -2.7457   -1.0999    0.8364 H   0  0  0  0  0  0  0  0  0  0  0  0
   -0.1664   -0.7043    0.0675 C   0  0  0  0  0  0  0  0  0  0  0  0
   -1.4133    0.8837    0.7792 H   0  0  0  0  0  0  0  0  0  0  0  0
   -1.3375    0.8943   -0.9424 H   0  0  0  0  0  0  0  0  0  0  0  0
   -0.1804   -1.3962    1.0370 H   0  0  0  0  0  0  0  0  0  0  0  0
    0.7705   -0.1387    0.1590 H   0  0  0  0  0  0  0  0  0  0  0  0
    0.0280   -1.3953   -0.7922 H   0  0  0  0  0  0  0  0  0  0  0  0
  1  3  1  0  0  0  0
  1  5  1  0  0  0  0
  2  1  1  0  0  0  0
  2  8  1  0  0  0  0
  4  1  1  0  0  0  0
  6  2  1  0  0  0  0
  6  9  1  0  0  0  0
  6 10  1  0  0  0  0
  7  2  1  0  0  0  0
  9 13  1  0  0  0  0
  9 12  1  0  0  0  0
 11  6  1  0  0  0  0
 14  9  1  0  0  0  0
M  END
$$$$
