butane_opt
 OpenBabel08242015413D

 14 13  0  0  0  0  0  0  0  0999 V2000
   -3.9729    0.2760    0.0017 C   0  0  0  0  0  0  0  0  0  0  0  0
   -2.7001   -0.6452    0.0478 C   0  0  0  0  0  0  0  0  0  0  0  0
   -4.8606   -0.2717    0.3128 H   0  0  0  0  0  0  0  0  0  0  0  0
   -4.0741    1.1161   -1.0008 H   0  0  0  0  0  0  0  0  0  0  0  0
   -3.9649    0.8131    0.7390 H   0  0  0  0  0  0  0  0  0  0  0  0
   -1.3709    0.1696    0.0342 C   0  0  0  0  0  0  0  0  0  0  0  0
   -2.7068   -1.3776   -0.9166 H   0  0  0  0  0  0  0  0  0  0  0  0
   -2.7028   -1.1776    0.8798 H   0  0  0  0  0  0  0  0  0  0  0  0
   -0.1727   -0.6786    0.0209 C   0  0  0  0  0  0  0  0  0  0  0  0
   -1.3141    0.9124    0.9310 H   0  0  0  0  0  0  0  0  0  0  0  0
   -1.3605    0.8076   -0.8583 H   0  0  0  0  0  0  0  0  0  0  0  0
   -0.1097   -1.2727    0.8968 H   0  0  0  0  0  0  0  0  0  0  0  0
    0.7481   -0.0799    0.0528 H   0  0  0  0  0  0  0  0  0  0  0  0
   -0.0867   -1.4027   -0.8627 H   0  0  0  0  0  0  0  0  0  0  0  0
  1  2  1  0  0  0  0
  1  3  1  0  0  0  0
  1  5  1  0  0  0  0
  2  8  1  0  0  0  0
  4  1  1  0  0  0  0
  6  2  1  0  0  0  0
  6 10  1  0  0  0  0
  7  2  1  0  0  0  0
  9  6  1  0  0  0  0
  9 13  1  0  0  0  0
  9 12  1  0  0  0  0
 11  6  1  0  0  0  0
 14  9  1  0  0  0  0
M  END
$$$$
