14
butane_opt
C  -3.956903   0.274018  -0.011081
C  -2.706815  -0.633795   0.112077
H  -4.851913  -0.324779  -0.208858
H  -3.841362   0.897486  -0.905570
H  -4.154219   0.968077   0.828245
C  -1.405288   0.178631   0.033053
H  -2.669787  -1.301039  -0.776588
H  -2.731368  -1.299893   1.041123
C  -0.133565  -0.680349  -0.008092
H  -1.386602   0.879210   0.900024
H  -1.455064   0.819599  -0.852751
H  -0.152665  -1.261592   0.849678
H   0.810315  -0.046108   0.031176
H  -0.165380  -1.469400  -0.984162
