butane_opt
 OpenBabel08242015413D

 14 13  0  0  0  0  0  0  0  0999 V2000
   -3.9569    0.2740   -0.0111 C   0  0  0  0  0  0  0  0  0  0  0  0
   -2.7068   -0.6338    0.1121 C   0  0  0  0  0  0  0  0  0  0  0  0
   -4.8519   -0.3248   -0.2089 H   0  0  0  0  0  0  0  0  0  0  0  0
   -3.8414    0.8975   -0.9056 H   0  0  0  0  0  0  0  0  0  0  0  0
   -4.1542    0.9681    0.8282 H   0  0  0  0  0  0  0  0  0  0  0  0
   -1.4053    0.1786    0.0331 C   0  0  0  0  0  0  0  0  0  0  0  0
   -2.6698   -1.3010   -0.7766 H   0  0  0  0  0  0  0  0  0  0  0  0
   -2.7314   -1.2999    1.0411 H   0  0  0  0  0  0  0  0  0  0  0  0
   -0.1336   -0.6803   -0.0081 C   0  0  0  0  0  0  0  0  0  0  0  0
   -1.3866    0.8792    0.9000 H   0  0  0  0  0  0  0  0  0  0  0  0
   -1.4551    0.8196   -0.8528 H   0  0  0  0  0  0  0  0  0  0  0  0
   -0.1527   -1.2616    0.8497 H   0  0  0  0  0  0  0  0  0  0  0  0
    0.8103   -0.0461    0.0312 H   0  0  0  0  0  0  0  0  0  0  0  0
   -0.1654   -1.4694   -0.9842 H   0  0  0  0  0  0  0  0  0  0  0  0
  1  2  1  0  0  0  0
  1  5  1  0  0  0  0
  2  8  1  0  0  0  0
  3  1  1  0  0  0  0
  4  1  1  0  0  0  0
  6  2  1  0  0  0  0
  6 10  1  0  0  0  0
  7  2  1  0  0  0  0
  9 13  1  0  0  0  0
  9  6  1  0  0  0  0
  9 12  1  0  0  0  0
 11  6  1  0  0  0  0
 14  9  1  0  0  0  0
M  END
$$$$
