14
butane_opt
C  -3.928134   0.255778   0.035490
C  -2.680138  -0.608419   0.020806
H  -4.877528  -0.377691  -0.067120
H  -3.846291   0.755980  -0.821770
H  -3.917612   1.046769   0.962564
C  -1.425013   0.198646   0.001085
H  -2.791151  -1.366258  -0.921154
H  -2.664065  -1.190957   0.858425
C  -0.180898  -0.697414   0.059423
H  -1.397248   0.848697   0.886308
H  -1.422748   0.878739  -0.939635
H  -0.047300  -1.483761   1.010936
H   0.692455  -0.151769  -0.236850
H  -0.185429  -1.209319  -0.669915
