14
butane_opt
C  -3.929024   0.252607  -0.036150
C  -2.703320  -0.580919   0.105657
H  -4.921469  -0.430409  -0.182041
H  -3.783583   0.776106  -0.904006
H  -3.995111   0.982605   0.857332
C  -1.414437   0.191026   0.068449
H  -2.641691  -1.251403  -0.693669
H  -2.799494  -1.294199   1.094374
C  -0.171753  -0.699514  -0.026824
H  -1.367254   0.831880   0.885454
H  -1.508577   0.873634  -0.843437
H   0.026968  -1.328413   0.821539
H   0.747041  -0.118627   0.002145
H  -0.164323  -1.473817  -0.917060
