14
butane_opt
C  -3.962834   0.291882  -0.025628
C  -2.693294  -0.658093   0.111565
H  -4.857491  -0.305858  -0.228441
H  -3.937139   0.814249  -0.883920
H  -4.134212   1.087895   0.908094
C  -1.373525   0.183504   0.041155
H  -2.745603  -1.301592  -0.725896
H  -2.736912  -1.331312   1.040190
C  -0.165745  -0.681906  -0.003159
H  -1.338604   0.861515   0.884888
H  -1.360704   0.807673  -0.917343
H  -0.109253  -1.230861   0.851095
H   0.750560  -0.105505  -0.031341
H  -0.209776  -1.392504  -0.944666
