14
butane_opt
C  -3.948776   0.249293   0.053055
C  -2.721066  -0.621906   0.013120
H  -4.837564  -0.327091  -0.125104
H  -3.859957   0.750632  -0.768813
H  -4.064130   1.130633   1.092526
C  -1.387753   0.221254  -0.026404
H  -2.764694  -1.299577  -0.840435
H  -2.794378  -1.241848   0.905953
C  -0.141251  -0.713246   0.072137
H  -1.498462   0.823208   0.753905
H  -1.365824   0.953609  -1.051595
H  -0.089957  -1.356843   0.987493
H   0.763338  -0.165758  -0.038284
H  -0.122658  -1.364534  -0.794872
