14
butane_opt
C  -3.966627   0.284374   0.075299
C  -2.691278  -0.652082  -0.054274
H  -4.825200  -0.293769   0.252023
H  -4.128774   0.915452  -0.830678
H  -3.845863   0.936681   0.908019
C  -1.402388   0.179739  -0.025571
H  -2.793817  -1.358651  -0.914315
H  -2.677051  -1.254462   0.790211
C  -0.158410  -0.677917   0.095143
H  -1.497321   0.902194   0.816252
H  -1.234984   0.829719  -0.958993
H  -0.107718  -1.400870   1.073859
H   0.768261  -0.077557  -0.094807
H  -0.080729  -1.262482  -0.696231
