butane_opt
 OpenBabel08242015413D

 14 13  0  0  0  0  0  0  0  0999 V2000
   -3.9523    0.2854    0.0195 C   0  0  0  0  0  0  0  0  0  0  0  0
   -2.6750   -0.6280    0.0550 C   0  0  0  0  0  0  0  0  0  0  0  0
   -4.9079   -0.3561   -0.2142 H   0  0  0  0  0  0  0  0  0  0  0  0
   -3.9652    0.6698   -0.7306 H   0  0  0  0  0  0  0  0  0  0  0  0
   -3.9905    1.1384    1.0057 H   0  0  0  0  0  0  0  0  0  0  0  0
   -1.3972    0.1586   -0.0213 C   0  0  0  0  0  0  0  0  0  0  0  0
   -2.5898   -1.2820   -0.7437 H   0  0  0  0  0  0  0  0  0  0  0  0
   -2.7525   -1.2749    0.9891 H   0  0  0  0  0  0  0  0  0  0  0  0
   -0.1731   -0.6838    0.0422 C   0  0  0  0  0  0  0  0  0  0  0  0
   -1.3815    0.8106    0.7956 H   0  0  0  0  0  0  0  0  0  0  0  0
   -1.3883    0.8441   -0.9133 H   0  0  0  0  0  0  0  0  0  0  0  0
   -0.2034   -1.2508    0.9291 H   0  0  0  0  0  0  0  0  0  0  0  0
    0.7426   -0.0718   -0.0075 H   0  0  0  0  0  0  0  0  0  0  0  0
   -0.2064   -1.2985   -0.7967 H   0  0  0  0  0  0  0  0  0  0  0  0
  1  2  1  0  0  0  0
  1  5  1  0  0  0  0
  2  8  1  0  0  0  0
  3  1  1  0  0  0  0
  4  1  1  0  0  0  0
  6  9  1  0  0  0  0
  6  2  1  0  0  0  0
  6 10  1  0  0  0  0
  7  2  1  0  0  0  0
  9 12  1  0  0  0  0
 11  6  1  0  0  0  0
 13  9  1  0  0  0  0
 14  9  1  0  0  0  0
M  END
$$$$
