14
butane_opt
C  -3.927964   0.256776   0.056296
C  -2.696302  -0.588534  -0.010855
H  -4.881843  -0.393145  -0.067959
H  -3.964147   0.784891  -0.756420
H  -3.885898   0.990860   0.981616
C  -1.411136   0.196600  -0.005474
H  -2.805912  -1.327804  -0.899398
H  -2.661289  -1.174291   0.847437
C  -0.161288  -0.712883   0.071744
H  -1.440011   0.745454   0.750032
H  -1.328053   0.876228  -0.972635
H  -0.140637  -1.455684   1.068941
H   0.741863  -0.075580  -0.123158
H  -0.282487  -1.270208  -0.721680
