14
butane_opt
C  -3.950483   0.271475   0.039905
C  -2.708029  -0.635277   0.034898
H  -4.804033  -0.230061   0.073474
H  -4.062383   0.830306  -0.813177
H  -4.005964   0.992126   0.930822
C  -1.383770   0.175055  -0.049043
H  -2.722269  -1.294333  -0.778397
H  -2.664261  -1.206652   0.905044
C  -0.160415  -0.685616   0.055952
H  -1.394599   0.831357   0.818021
H  -1.303062   0.822035  -0.985375
H  -0.353535  -1.159959   0.899965
H   0.732772  -0.100240   0.225684
H  -0.009481  -1.470121  -0.834985
