butane_opt
 OpenBabel08242015413D

 14 13  0  0  0  0  0  0  0  0999 V2000
   -3.9619    0.2425    0.0273 C   0  0  0  0  0  0  0  0  0  0  0  0
   -2.7144   -0.5916    0.0172 C   0  0  0  0  0  0  0  0  0  0  0  0
   -4.8832   -0.3558    0.1797 H   0  0  0  0  0  0  0  0  0  0  0  0
   -3.9924    1.0262   -1.0365 H   0  0  0  0  0  0  0  0  0  0  0  0
   -3.8480    0.7001    0.7264 H   0  0  0  0  0  0  0  0  0  0  0  0
   -1.4098    0.2071    0.0282 C   0  0  0  0  0  0  0  0  0  0  0  0
   -2.7548   -1.2626   -0.8036 H   0  0  0  0  0  0  0  0  0  0  0  0
   -2.6826   -1.1993    0.9128 H   0  0  0  0  0  0  0  0  0  0  0  0
   -0.1404   -0.7001    0.0263 C   0  0  0  0  0  0  0  0  0  0  0  0
   -1.3815    0.9810    0.9211 H   0  0  0  0  0  0  0  0  0  0  0  0
   -1.4467    0.7382   -0.7629 H   0  0  0  0  0  0  0  0  0  0  0  0
   -0.0427   -1.3813    0.9601 H   0  0  0  0  0  0  0  0  0  0  0  0
    0.7607   -0.1878   -0.0067 H   0  0  0  0  0  0  0  0  0  0  0  0
   -0.0401   -1.4232   -0.8657 H   0  0  0  0  0  0  0  0  0  0  0  0
  1  3  1  0  0  0  0
  1  5  1  0  0  0  0
  2  1  1  0  0  0  0
  2  6  1  0  0  0  0
  2  8  1  0  0  0  0
  4  1  1  0  0  0  0
  6 10  1  0  0  0  0
  7  2  1  0  0  0  0
  9  6  1  0  0  0  0
  9 12  1  0  0  0  0
 11  6  1  0  0  0  0
 13  9  1  0  0  0  0
 14  9  1  0  0  0  0
M  END
$$$$
