butane_opt
 OpenBabel08242015413D

 14 13  0  0  0  0  0  0  0  0999 V2000
   -3.9628    0.2919   -0.0256 C   0  0  0  0  0  0  0  0  0  0  0  0
   -2.6933   -0.6581    0.1116 C   0  0  0  0  0  0  0  0  0  0  0  0
   -4.8575   -0.3059   -0.2284 H   0  0  0  0  0  0  0  0  0  0  0  0
   -3.9371    0.8142   -0.8839 H   0  0  0  0  0  0  0  0  0  0  0  0
   -4.1342    1.0879    0.9081 H   0  0  0  0  0  0  0  0  0  0  0  0
   -1.3735    0.1835    0.0412 C   0  0  0  0  0  0  0  0  0  0  0  0
   -2.7456   -1.3016   -0.7259 H   0  0  0  0  0  0  0  0  0  0  0  0
   -2.7369   -1.3313    1.0402 H   0  0  0  0  0  0  0  0  0  0  0  0
   -0.1657   -0.6819   -0.0032 C   0  0  0  0  0  0  0  0  0  0  0  0
   -1.3386    0.8615    0.8849 H   0  0  0  0  0  0  0  0  0  0  0  0
   -1.3607    0.8077   -0.9173 H   0  0  0  0  0  0  0  0  0  0  0  0
   -0.1093   -1.2309    0.8511 H   0  0  0  0  0  0  0  0  0  0  0  0
    0.7506   -0.1055   -0.0313 H   0  0  0  0  0  0  0  0  0  0  0  0
   -0.2098   -1.3925   -0.9447 H   0  0  0  0  0  0  0  0  0  0  0  0
  1  2  1  0  0  0  0
  1  5  1  0  0  0  0
  2  8  1  0  0  0  0
  3  1  1  0  0  0  0
  4  1  1  0  0  0  0
  6  2  1  0  0  0  0
  6 10  1  0  0  0  0
  7  2  1  0  0  0  0
  9  6  1  0  0  0  0
  9 12  1  0  0  0  0
 11  6  1  0  0  0  0
 13  9  1  0  0  0  0
 14  9  1  0  0  0  0
M  END
$$$$
