butane_opt
 OpenBabel08242015413D

 14 13  0  0  0  0  0  0  0  0999 V2000
   -3.9387    0.2945    0.0525 C   0  0  0  0  0  0  0  0  0  0  0  0
   -2.6840   -0.6384    0.0117 C   0  0  0  0  0  0  0  0  0  0  0  0
   -4.9008   -0.3210   -0.1316 H   0  0  0  0  0  0  0  0  0  0  0  0
   -3.9322    0.6569   -0.6937 H   0  0  0  0  0  0  0  0  0  0  0  0
   -3.9708    1.1521    1.0832 H   0  0  0  0  0  0  0  0  0  0  0  0
   -1.3931    0.1534   -0.0551 C   0  0  0  0  0  0  0  0  0  0  0  0
   -2.6931   -1.2817   -0.8190 H   0  0  0  0  0  0  0  0  0  0  0  0
   -2.6313   -1.2802    0.8990 H   0  0  0  0  0  0  0  0  0  0  0  0
   -0.1959   -0.6771    0.0814 C   0  0  0  0  0  0  0  0  0  0  0  0
   -1.3857    0.7980    0.7320 H   0  0  0  0  0  0  0  0  0  0  0  0
   -1.4122    0.8220   -0.9656 H   0  0  0  0  0  0  0  0  0  0  0  0
   -0.2343   -1.2616    0.9673 H   0  0  0  0  0  0  0  0  0  0  0  0
    0.7729   -0.0690   -0.0184 H   0  0  0  0  0  0  0  0  0  0  0  0
   -0.1016   -1.2723   -0.6795 H   0  0  0  0  0  0  0  0  0  0  0  0
  1  5  1  0  0  0  0
  2  1  1  0  0  0  0
  2  8  1  0  0  0  0
  3  1  1  0  0  0  0
  4  1  1  0  0  0  0
  6  2  1  0  0  0  0
  6  9  1  0  0  0  0
  6 10  1  0  0  0  0
  7  2  1  0  0  0  0
  9 12  1  0  0  0  0
 11  6  1  0  0  0  0
 13  9  1  0  0  0  0
 14  9  1  0  0  0  0
M  END
$$$$
