14
butane_opt
C  -3.943165   0.250967   0.052932
C  -2.696871  -0.590648  -0.003479
H  -4.916772  -0.390009   0.048891
H  -3.915460   0.716161  -0.766203
H  -3.934845   0.988291   0.984645
C  -1.407309   0.205122  -0.018412
H  -2.770073  -1.342398  -0.927286
H  -2.717169  -1.072642   0.777670
C  -0.152187  -0.706836   0.075601
H  -1.344203   0.808730   0.766781
H  -1.434420   0.845115  -0.964997
H  -0.115616  -1.552259   1.143885
H   0.681209  -0.146601  -0.128722
H  -0.152208  -1.246027  -0.730660
