butane_opt
 OpenBabel08242015413D

 14 13  0  0  0  0  0  0  0  0999 V2000
   -3.9295    0.2551    0.0614 C   0  0  0  0  0  0  0  0  0  0  0  0
   -2.7008   -0.6117    0.0054 C   0  0  0  0  0  0  0  0  0  0  0  0
   -4.9052   -0.3884    0.0723 H   0  0  0  0  0  0  0  0  0  0  0  0
   -3.9382    0.8472   -0.7816 H   0  0  0  0  0  0  0  0  0  0  0  0
   -3.9009    0.9866    1.0013 H   0  0  0  0  0  0  0  0  0  0  0  0
   -1.4220    0.2045   -0.0622 C   0  0  0  0  0  0  0  0  0  0  0  0
   -2.7435   -1.3299   -0.9259 H   0  0  0  0  0  0  0  0  0  0  0  0
   -2.6071   -1.2552    0.9152 H   0  0  0  0  0  0  0  0  0  0  0  0
   -0.1602   -0.6947    0.0934 C   0  0  0  0  0  0  0  0  0  0  0  0
   -1.4332    0.7906    0.7190 H   0  0  0  0  0  0  0  0  0  0  0  0
   -1.3663    0.9149   -1.0068 H   0  0  0  0  0  0  0  0  0  0  0  0
   -0.2285   -1.1998    0.9435 H   0  0  0  0  0  0  0  0  0  0  0  0
    0.7002   -0.1802    0.1792 H   0  0  0  0  0  0  0  0  0  0  0  0
   -0.0361   -1.5166   -0.8634 H   0  0  0  0  0  0  0  0  0  0  0  0
  1  3  1  0  0  0  0
  1  5  1  0  0  0  0
  2  1  1  0  0  0  0
  2  8  1  0  0  0  0
  4  1  1  0  0  0  0
  6  2  1  0  0  0  0
  6  9  1  0  0  0  0
  6 10  1  0  0  0  0
  7  2  1  0  0  0  0
  9 13  1  0  0  0  0
  9 12  1  0  0  0  0
 11  6  1  0  0  0  0
 14  9  1  0  0  0  0
M  END
$$$$
