14
butane_opt
C  -3.947066   0.239332  -0.003012
C  -2.696560  -0.597071   0.070384
H  -4.885979  -0.380297   0.131881
H  -3.910844   0.986808  -0.928370
H  -3.998438   0.836575   0.797206
C  -1.404707   0.211076   0.006474
H  -2.717727  -1.191964  -0.742709
H  -2.798649  -1.297090   1.025157
C  -0.163853  -0.710816   0.007976
H  -1.366013   0.963547   0.951028
H  -1.427099   0.803613  -0.868345
H  -0.158004  -1.177640   0.800682
H   0.728613  -0.142288   0.242533
H   0.058579  -1.597200  -0.972434
