14
butane_opt
C  -3.968138   0.292053   0.062396
C  -2.690697  -0.660169  -0.004005
H  -4.859980  -0.266761   0.055926
H  -4.077846   0.897976  -0.793023
H  -3.903364   1.025201   1.030017
C  -1.382705   0.175007  -0.049953
H  -2.827199  -1.364018  -0.911417
H  -2.660880  -1.263265   0.847115
C  -0.169404  -0.671040   0.089070
H  -1.409602   0.749295   0.763554
H  -1.243567   0.889724  -1.048596
H  -0.174171  -1.256530   0.966487
H   0.751856  -0.096638   0.150476
H  -0.103214  -1.404882  -0.801316
