14
butane_opt
C  -3.937840   0.284688   0.075307
C  -2.699278  -0.638857  -0.031151
H  -4.796957  -0.275105   0.343380
H  -4.097982   1.039182  -0.896453
H  -3.917445   0.900833   0.915702
C  -1.395014   0.170296  -0.047765
H  -2.772625  -1.496942  -1.018327
H  -2.630874  -1.196720   0.754693
C  -0.185064  -0.683886   0.101224
H  -1.349442   0.800571   0.775047
H  -1.378459   0.812566  -0.954153
H  -0.238886  -1.314215   1.022115
H   0.847117  -0.000557   0.104625
H  -0.097544  -1.295285  -0.770744
