butane_opt
 OpenBabel08242015413D

 14 13  0  0  0  0  0  0  0  0999 V2000
   -3.9681    0.2921    0.0624 C   0  0  0  0  0  0  0  0  0  0  0  0
   -2.6907   -0.6602   -0.0040 C   0  0  0  0  0  0  0  0  0  0  0  0
   -4.8600   -0.2668    0.0559 H   0  0  0  0  0  0  0  0  0  0  0  0
   -4.0778    0.8980   -0.7930 H   0  0  0  0  0  0  0  0  0  0  0  0
   -3.9034    1.0252    1.0300 H   0  0  0  0  0  0  0  0  0  0  0  0
   -1.3827    0.1750   -0.0500 C   0  0  0  0  0  0  0  0  0  0  0  0
   -2.8272   -1.3640   -0.9114 H   0  0  0  0  0  0  0  0  0  0  0  0
   -2.6609   -1.2633    0.8471 H   0  0  0  0  0  0  0  0  0  0  0  0
   -0.1694   -0.6710    0.0891 C   0  0  0  0  0  0  0  0  0  0  0  0
   -1.4096    0.7493    0.7636 H   0  0  0  0  0  0  0  0  0  0  0  0
   -1.2436    0.8897   -1.0486 H   0  0  0  0  0  0  0  0  0  0  0  0
   -0.1742   -1.2565    0.9665 H   0  0  0  0  0  0  0  0  0  0  0  0
    0.7519   -0.0966    0.1505 H   0  0  0  0  0  0  0  0  0  0  0  0
   -0.1032   -1.4049   -0.8013 H   0  0  0  0  0  0  0  0  0  0  0  0
  1  5  1  0  0  0  0
  2  1  1  0  0  0  0
  2  8  1  0  0  0  0
  3  1  1  0  0  0  0
  4  1  1  0  0  0  0
  6  2  1  0  0  0  0
  6  9  1  0  0  0  0
  6 10  1  0  0  0  0
  7  2  1  0  0  0  0
  9 13  1  0  0  0  0
  9 12  1  0  0  0  0
 11  6  1  0  0  0  0
 14  9  1  0  0  0  0
M  END
$$$$
