butane_opt
 OpenBabel08242015413D

 14 13  0  0  0  0  0  0  0  0999 V2000
   -3.9630    0.2813    0.0358 C   0  0  0  0  0  0  0  0  0  0  0  0
   -2.6878   -0.6369    0.0271 C   0  0  0  0  0  0  0  0  0  0  0  0
   -4.8414   -0.2830    0.0953 H   0  0  0  0  0  0  0  0  0  0  0  0
   -3.9830    0.8865   -0.8664 H   0  0  0  0  0  0  0  0  0  0  0  0
   -4.0150    0.8758    0.8680 H   0  0  0  0  0  0  0  0  0  0  0  0
   -1.3932    0.1790   -0.0085 C   0  0  0  0  0  0  0  0  0  0  0  0
   -2.7816   -1.3194   -0.8498 H   0  0  0  0  0  0  0  0  0  0  0  0
   -2.6551   -1.2325    0.9013 H   0  0  0  0  0  0  0  0  0  0  0  0
   -0.1675   -0.6832    0.0472 C   0  0  0  0  0  0  0  0  0  0  0  0
   -1.3879    0.8212    0.8039 H   0  0  0  0  0  0  0  0  0  0  0  0
   -1.3450    0.8309   -0.9346 H   0  0  0  0  0  0  0  0  0  0  0  0
   -0.1697   -1.2444    0.8996 H   0  0  0  0  0  0  0  0  0  0  0  0
    0.7462   -0.0729    0.1388 H   0  0  0  0  0  0  0  0  0  0  0  0
   -0.0651   -1.4118   -0.8455 H   0  0  0  0  0  0  0  0  0  0  0  0
  1  3  1  0  0  0  0
  1  5  1  0  0  0  0
  2  1  1  0  0  0  0
  2  8  1  0  0  0  0
  4  1  1  0  0  0  0
  6  2  1  0  0  0  0
  6  9  1  0  0  0  0
  6 10  1  0  0  0  0
  7  2  1  0  0  0  0
  9 13  1  0  0  0  0
  9 12  1  0  0  0  0
 11  6  1  0  0  0  0
 14  9  1  0  0  0  0
M  END
$$$$
