14
butane_opt
C  -3.915245   0.245591   0.040235
C  -2.684516  -0.585151   0.043170
H  -4.890958  -0.401650  -0.194954
H  -3.878302   0.691796  -0.771478
H  -3.968475   1.055241   1.000141
C  -1.419162   0.207205  -0.015931
H  -2.766483  -1.353149  -0.878980
H  -2.747039  -1.187135   0.970841
C  -0.170853  -0.710128   0.035914
H  -1.434647   0.786464   0.771408
H  -1.392674   0.925284  -0.962860
H  -0.206568  -1.406424   1.023942
H   0.657380  -0.162971   0.041980
H  -0.096488  -1.332191  -0.786863
