butane_opt
 OpenBabel08242015413D

 14 13  0  0  0  0  0  0  0  0999 V2000
   -3.9691    0.2747    0.0011 C   0  0  0  0  0  0  0  0  0  0  0  0
   -2.7084   -0.6198    0.0711 C   0  0  0  0  0  0  0  0  0  0  0  0
   -4.9087   -0.3547   -0.1668 H   0  0  0  0  0  0  0  0  0  0  0  0
   -3.9697    0.7665   -0.8419 H   0  0  0  0  0  0  0  0  0  0  0  0
   -3.9881    1.0640    0.9145 H   0  0  0  0  0  0  0  0  0  0  0  0
   -1.3886    0.1667    0.0097 C   0  0  0  0  0  0  0  0  0  0  0  0
   -2.6335   -1.2635   -0.7541 H   0  0  0  0  0  0  0  0  0  0  0  0
   -2.7783   -1.3183    1.0094 H   0  0  0  0  0  0  0  0  0  0  0  0
   -0.1347   -0.6738    0.0165 C   0  0  0  0  0  0  0  0  0  0  0  0
   -1.3785    0.9076    0.9512 H   0  0  0  0  0  0  0  0  0  0  0  0
   -1.4184    0.8007   -0.8704 H   0  0  0  0  0  0  0  0  0  0  0  0
   -0.0969   -1.3581    0.9088 H   0  0  0  0  0  0  0  0  0  0  0  0
    0.7215   -0.1555   -0.0620 H   0  0  0  0  0  0  0  0  0  0  0  0
   -0.1623   -1.3402   -0.8167 H   0  0  0  0  0  0  0  0  0  0  0  0
  1  2  1  0  0  0  0
  1  5  1  0  0  0  0
  2  8  1  0  0  0  0
  3  1  1  0  0  0  0
  4  1  1  0  0  0  0
  6  9  1  0  0  0  0
  6  2  1  0  0  0  0
  6 10  1  0  0  0  0
  7  2  1  0  0  0  0
  9 12  1  0  0  0  0
 11  6  1  0  0  0  0
 13  9  1  0  0  0  0
 14  9  1  0  0  0  0
M  END
$$$$
