14
butane_opt
C  -3.950754   0.288103   0.004799
C  -2.707306  -0.653701   0.054501
H  -4.831690  -0.269597   0.178614
H  -4.094575   1.051087  -0.947279
H  -3.962490   0.905149   0.810645
C  -1.399345   0.179090   0.000522
H  -2.792875  -1.334085  -0.826450
H  -2.705454  -1.360750   0.963726
C  -0.155005  -0.681981   0.019578
H  -1.291752   0.909723   0.884142
H  -1.375735   0.737812  -0.813201
H  -0.194504  -1.179064   0.863997
H   0.839282  -0.045295   0.233578
H  -0.076129  -1.447142  -0.878154
