14
butane_opt
C  -3.969096   0.274712   0.001142
C  -2.708448  -0.619776   0.071071
H  -4.908653  -0.354741  -0.166787
H  -3.969735   0.766495  -0.841912
H  -3.988147   1.064004   0.914476
C  -1.388589   0.166743   0.009656
H  -2.633470  -1.263461  -0.754081
H  -2.778309  -1.318330   1.009446
C  -0.134731  -0.673809   0.016484
H  -1.378458   0.907581   0.951156
H  -1.418426   0.800728  -0.870392
H  -0.096949  -1.358144   0.908773
H   0.721463  -0.155462  -0.062009
H  -0.162275  -1.340236  -0.816700
