14
butane_opt
C  -3.925817   0.248544   0.047623
C  -2.696883  -0.581852   0.003303
H  -4.915041  -0.373988   0.117993
H  -3.971793   0.823925  -0.789970
H  -3.791927   0.960633   0.964173
C  -1.417861   0.172307  -0.050215
H  -2.804735  -1.247846  -0.849482
H  -2.703867  -1.220637   0.920138
C  -0.161786  -0.701801   0.076665
H  -1.434408   0.851051   0.811579
H  -1.379869   0.890850  -0.953601
H  -0.262251  -1.224336   0.932047
H   0.695928  -0.175763   0.162443
H  -0.018292  -1.425306  -0.818964
