14
butane_opt
C  -3.970590   0.273449   0.077765
C  -2.700140  -0.633478  -0.019172
H  -4.834423  -0.204620   0.173205
H  -4.078253   0.886626  -0.809889
H  -3.946864   1.042017   1.031006
C  -1.384709   0.166453  -0.071147
H  -2.714972  -1.406574  -0.935589
H  -2.707873  -1.247735   0.861484
C  -0.151517  -0.678504   0.095162
H  -1.408309   0.716951   0.695240
H  -1.312543   0.905570  -0.992520
H  -0.318416  -1.231901   0.984333
H   0.828595  -0.013579   0.237544
H  -0.053179  -1.439195  -0.793267
