butane_opt
 OpenBabel08242015413D

 14 13  0  0  0  0  0  0  0  0999 V2000
   -3.9360    0.2910    0.0232 C   0  0  0  0  0  0  0  0  0  0  0  0
   -2.6973   -0.6310    0.0670 C   0  0  0  0  0  0  0  0  0  0  0  0
   -4.8194   -0.3219   -0.2384 H   0  0  0  0  0  0  0  0  0  0  0  0
   -3.8825    0.7297   -0.7406 H   0  0  0  0  0  0  0  0  0  0  0  0
   -4.0661    1.1450    1.0023 H   0  0  0  0  0  0  0  0  0  0  0  0
   -1.4092    0.1508   -0.0145 C   0  0  0  0  0  0  0  0  0  0  0  0
   -2.7538   -1.3312   -0.8382 H   0  0  0  0  0  0  0  0  0  0  0  0
   -2.6230   -1.2083    0.8951 H   0  0  0  0  0  0  0  0  0  0  0  0
   -0.1701   -0.6709    0.0412 C   0  0  0  0  0  0  0  0  0  0  0  0
   -1.2998    0.7216    0.7830 H   0  0  0  0  0  0  0  0  0  0  0  0
   -1.3839    0.7958   -0.9577 H   0  0  0  0  0  0  0  0  0  0  0  0
   -0.2723   -1.3534    0.9912 H   0  0  0  0  0  0  0  0  0  0  0  0
    0.8042   -0.0203   -0.0299 H   0  0  0  0  0  0  0  0  0  0  0  0
   -0.1850   -1.3001   -0.8105 H   0  0  0  0  0  0  0  0  0  0  0  0
  1  2  1  0  0  0  0
  1  5  1  0  0  0  0
  2  8  1  0  0  0  0
  3  1  1  0  0  0  0
  4  1  1  0  0  0  0
  6  9  1  0  0  0  0
  6  2  1  0  0  0  0
  6 10  1  0  0  0  0
  7  2  1  0  0  0  0
  9 12  1  0  0  0  0
 11  6  1  0  0  0  0
 13  9  1  0  0  0  0
 14  9  1  0  0  0  0
M  END
$$$$
