14
butane_opt
C  -3.929997   0.278946  -0.017989
C  -2.700232  -0.632704   0.079142
H  -4.821080  -0.254538   0.234410
H  -3.929155   1.089091  -1.094940
H  -3.926831   0.767057   0.706593
C  -1.413194   0.178530   0.056995
H  -2.673415  -1.365837  -0.810920
H  -2.729703  -1.267190   0.968866
C  -0.176417  -0.687684  -0.006291
H  -1.250350   0.847176   0.934184
H  -1.467173   0.746652  -0.833403
H  -0.205396  -1.135253   0.812324
H   0.762776  -0.033501   0.131566
H  -0.161045  -1.491157  -0.967980
