butane_opt
 OpenBabel08242015413D

 14 13  0  0  0  0  0  0  0  0999 V2000
   -3.9522    0.2815    0.0533 C   0  0  0  0  0  0  0  0  0  0  0  0
   -2.6987   -0.6363    0.0059 C   0  0  0  0  0  0  0  0  0  0  0  0
   -4.7903   -0.2798    0.0607 H   0  0  0  0  0  0  0  0  0  0  0  0
   -4.1636    0.8673   -0.7637 H   0  0  0  0  0  0  0  0  0  0  0  0
   -3.9913    0.9584    0.9611 H   0  0  0  0  0  0  0  0  0  0  0  0
   -1.3781    0.1740   -0.0425 C   0  0  0  0  0  0  0  0  0  0  0  0
   -2.7966   -1.3490   -0.9201 H   0  0  0  0  0  0  0  0  0  0  0  0
   -2.6248   -1.2549    0.8869 H   0  0  0  0  0  0  0  0  0  0  0  0
   -0.1662   -0.6794    0.0822 C   0  0  0  0  0  0  0  0  0  0  0  0
   -1.4428    0.7283    0.7170 H   0  0  0  0  0  0  0  0  0  0  0  0
   -1.3249    0.8755   -0.9743 H   0  0  0  0  0  0  0  0  0  0  0  0
   -0.1993   -1.1962    0.9235 H   0  0  0  0  0  0  0  0  0  0  0  0
    0.7573   -0.0974    0.1645 H   0  0  0  0  0  0  0  0  0  0  0  0
   -0.0999   -1.3958   -0.8188 H   0  0  0  0  0  0  0  0  0  0  0  0
  1  3  1  0  0  0  0
  1  5  1  0  0  0  0
  2  1  1  0  0  0  0
  2  8  1  0  0  0  0
  4  1  1  0  0  0  0
  6  2  1  0  0  0  0
  6  9  1  0  0  0  0
  6 10  1  0  0  0  0
  7  2  1  0  0  0  0
  9 13  1  0  0  0  0
  9 12  1  0  0  0  0
 11  6  1  0  0  0  0
 14  9  1  0  0  0  0
M  END
$$$$
