butane_opt
 OpenBabel08242015413D

 14 13  0  0  0  0  0  0  0  0999 V2000
   -3.9145    0.2591   -0.0461 C   0  0  0  0  0  0  0  0  0  0  0  0
   -2.6954   -0.6162    0.1158 C   0  0  0  0  0  0  0  0  0  0  0  0
   -4.8743   -0.3589   -0.0856 H   0  0  0  0  0  0  0  0  0  0  0  0
   -3.8730    0.8829   -0.9532 H   0  0  0  0  0  0  0  0  0  0  0  0
   -4.0054    0.9902    0.8489 H   0  0  0  0  0  0  0  0  0  0  0  0
   -1.4259    0.1911    0.0620 C   0  0  0  0  0  0  0  0  0  0  0  0
   -2.6708   -1.1676   -0.7012 H   0  0  0  0  0  0  0  0  0  0  0  0
   -2.7417   -1.3368    1.0759 H   0  0  0  0  0  0  0  0  0  0  0  0
   -0.1846   -0.6962   -0.0342 C   0  0  0  0  0  0  0  0  0  0  0  0
   -1.2661    0.8873    0.9409 H   0  0  0  0  0  0  0  0  0  0  0  0
   -1.4333    0.7467   -0.7829 H   0  0  0  0  0  0  0  0  0  0  0  0
   -0.1207   -1.2470    0.8008 H   0  0  0  0  0  0  0  0  0  0  0  0
    0.7106   -0.1203    0.0720 H   0  0  0  0  0  0  0  0  0  0  0  0
   -0.0975   -1.4108   -0.9443 H   0  0  0  0  0  0  0  0  0  0  0  0
  1  2  1  0  0  0  0
  1  5  1  0  0  0  0
  2  8  1  0  0  0  0
  3  1  1  0  0  0  0
  4  1  1  0  0  0  0
  6  2  1  0  0  0  0
  6 10  1  0  0  0  0
  7  2  1  0  0  0  0
  9  6  1  0  0  0  0
  9 13  1  0  0  0  0
  9 12  1  0  0  0  0
 11  6  1  0  0  0  0
 14  9  1  0  0  0  0
M  END
$$$$
