butane_opt
 OpenBabel08242015413D

 14 13  0  0  0  0  0  0  0  0999 V2000
   -3.9475    0.2852   -0.0265 C   0  0  0  0  0  0  0  0  0  0  0  0
   -2.6808   -0.6295    0.0703 C   0  0  0  0  0  0  0  0  0  0  0  0
   -4.9089   -0.3429    0.2972 H   0  0  0  0  0  0  0  0  0  0  0  0
   -4.0016    1.1323   -1.1125 H   0  0  0  0  0  0  0  0  0  0  0  0
   -3.8094    0.6799    0.6454 H   0  0  0  0  0  0  0  0  0  0  0  0
   -1.4101    0.1602    0.0676 C   0  0  0  0  0  0  0  0  0  0  0  0
   -2.6188   -1.3233   -0.7720 H   0  0  0  0  0  0  0  0  0  0  0  0
   -2.7641   -1.2494    0.9551 H   0  0  0  0  0  0  0  0  0  0  0  0
   -0.1747   -0.6760   -0.0115 C   0  0  0  0  0  0  0  0  0  0  0  0
   -1.3201    0.9687    1.0207 H   0  0  0  0  0  0  0  0  0  0  0  0
   -1.4506    0.7404   -0.7242 H   0  0  0  0  0  0  0  0  0  0  0  0
   -0.1809   -1.2387    0.8437 H   0  0  0  0  0  0  0  0  0  0  0  0
    0.7359   -0.0247    0.0126 H   0  0  0  0  0  0  0  0  0  0  0  0
   -0.1640   -1.4907   -0.9596 H   0  0  0  0  0  0  0  0  0  0  0  0
  1  2  1  0  0  0  0
  1  3  1  0  0  0  0
  1  5  1  0  0  0  0
  2  8  1  0  0  0  0
  4  1  1  0  0  0  0
  6  2  1  0  0  0  0
  6 10  1  0  0  0  0
  7  2  1  0  0  0  0
  9 13  1  0  0  0  0
  9  6  1  0  0  0  0
  9 12  1  0  0  0  0
 11  6  1  0  0  0  0
 14  9  1  0  0  0  0
M  END
$$$$
