14
butane_opt
C  -3.959360   0.269826  -0.010655
C  -2.698975  -0.633162   0.086561
H  -4.819268  -0.250946   0.033433
H  -3.963971   1.093013  -1.040970
H  -4.059455   0.823868   0.734989
C  -1.389908   0.186588   0.042783
H  -2.693831  -1.280364  -0.727093
H  -2.733124  -1.367112   1.062252
C  -0.161389  -0.682367  -0.018482
H  -1.286761   0.915770   0.935813
H  -1.340292   0.696975  -0.802543
H  -0.197542  -1.138116   0.793686
H   0.728401  -0.090070   0.174437
H  -0.138718  -1.557916  -0.962834
