14
butane_opt
C  -3.967038   0.298595   0.076503
C  -2.705610  -0.641612  -0.016381
H  -4.848850  -0.271792  -0.006344
H  -3.990673   0.835534  -0.746098
H  -4.003941   1.003124   0.993973
C  -1.382938   0.161974  -0.060765
H  -2.815200  -1.348291  -0.882257
H  -2.667690  -1.348329   0.877800
C  -0.154948  -0.684454   0.090590
H  -1.384841   0.812897   0.775910
H  -1.355576   0.824140  -0.971985
H  -0.240013  -1.226618   0.988905
H   0.836879  -0.031892   0.074899
H  -0.049338  -1.313292  -0.747876
