14
butane_opt
C  -3.938160   0.255274  -0.009623
C  -2.717198  -0.591204   0.052179
H  -4.871401  -0.357466  -0.032923
H  -3.963407   0.856587  -0.906999
H  -4.038945   0.872431   0.807019
C  -1.404848   0.198549   0.068097
H  -2.704529  -1.286171  -0.853036
H  -2.771792  -1.210714   0.964048
C  -0.148804  -0.715876   0.001129
H  -1.226159   0.924084   0.980603
H  -1.452100   0.764355  -0.758368
H  -0.058500  -1.505375   1.001867
H   0.764073  -0.123642  -0.300411
H  -0.175543  -1.173027  -0.784874
