butane_opt
 OpenBabel08242015413D

 14 13  0  0  0  0  0  0  0  0999 V2000
   -3.9594    0.2698   -0.0107 C   0  0  0  0  0  0  0  0  0  0  0  0
   -2.6990   -0.6332    0.0866 C   0  0  0  0  0  0  0  0  0  0  0  0
   -4.8193   -0.2509    0.0334 H   0  0  0  0  0  0  0  0  0  0  0  0
   -3.9640    1.0930   -1.0410 H   0  0  0  0  0  0  0  0  0  0  0  0
   -4.0595    0.8239    0.7350 H   0  0  0  0  0  0  0  0  0  0  0  0
   -1.3899    0.1866    0.0428 C   0  0  0  0  0  0  0  0  0  0  0  0
   -2.6938   -1.2804   -0.7271 H   0  0  0  0  0  0  0  0  0  0  0  0
   -2.7331   -1.3671    1.0623 H   0  0  0  0  0  0  0  0  0  0  0  0
   -0.1614   -0.6824   -0.0185 C   0  0  0  0  0  0  0  0  0  0  0  0
   -1.2868    0.9158    0.9358 H   0  0  0  0  0  0  0  0  0  0  0  0
   -1.3403    0.6970   -0.8025 H   0  0  0  0  0  0  0  0  0  0  0  0
   -0.1975   -1.1381    0.7937 H   0  0  0  0  0  0  0  0  0  0  0  0
    0.7284   -0.0901    0.1744 H   0  0  0  0  0  0  0  0  0  0  0  0
   -0.1387   -1.5579   -0.9628 H   0  0  0  0  0  0  0  0  0  0  0  0
  1  3  1  0  0  0  0
  1  2  1  0  0  0  0
  1  5  1  0  0  0  0
  2  8  1  0  0  0  0
  4  1  1  0  0  0  0
  6  2  1  0  0  0  0
  6 10  1  0  0  0  0
  7  2  1  0  0  0  0
  9  6  1  0  0  0  0
  9 13  1  0  0  0  0
  9 12  1  0  0  0  0
 11  6  1  0  0  0  0
 14  9  1  0  0  0  0
M  END
$$$$
