butane_opt
 OpenBabel08242015413D

 14 13  0  0  0  0  0  0  0  0999 V2000
   -3.9624    0.2714   -0.0223 C   0  0  0  0  0  0  0  0  0  0  0  0
   -2.6746   -0.6204    0.0904 C   0  0  0  0  0  0  0  0  0  0  0  0
   -4.8565   -0.3301    0.0483 H   0  0  0  0  0  0  0  0  0  0  0  0
   -3.9036    0.9638   -0.9304 H   0  0  0  0  0  0  0  0  0  0  0  0
   -3.9359    0.8269    0.7830 H   0  0  0  0  0  0  0  0  0  0  0  0
   -1.3985    0.1660    0.0435 C   0  0  0  0  0  0  0  0  0  0  0  0
   -2.6253   -1.2243   -0.6910 H   0  0  0  0  0  0  0  0  0  0  0  0
   -2.7623   -1.2994    1.0333 H   0  0  0  0  0  0  0  0  0  0  0  0
   -0.1783   -0.6920   -0.0073 C   0  0  0  0  0  0  0  0  0  0  0  0
   -1.3088    0.8461    0.8755 H   0  0  0  0  0  0  0  0  0  0  0  0
   -1.4455    0.9249   -0.9278 H   0  0  0  0  0  0  0  0  0  0  0  0
   -0.2011   -1.0331    0.7256 H   0  0  0  0  0  0  0  0  0  0  0  0
    0.7201   -0.0702    0.2873 H   0  0  0  0  0  0  0  0  0  0  0  0
   -0.1439   -1.5916   -1.0370 H   0  0  0  0  0  0  0  0  0  0  0  0
  1  3  1  0  0  0  0
  1  2  1  0  0  0  0
  1  5  1  0  0  0  0
  2  8  1  0  0  0  0
  4  1  1  0  0  0  0
  6  2  1  0  0  0  0
  6 10  1  0  0  0  0
  7  2  1  0  0  0  0
  9  6  1  0  0  0  0
  9 13  1  0  0  0  0
  9 12  1  0  0  0  0
 11  6  1  0  0  0  0
 14  9  1  0  0  0  0
M  END
$$$$
