14
butane_opt
C  -3.953358   0.277801   0.055564
C  -2.690348  -0.634916  -0.023901
H  -4.803537  -0.246835   0.121599
H  -3.983378   0.861237  -0.772923
H  -3.908202   1.019041   0.965486
C  -1.399555   0.154367  -0.023719
H  -2.672881  -1.394916  -0.906624
H  -2.675461  -1.165645   0.840599
C  -0.176563  -0.685182   0.070474
H  -1.370297   0.908819   0.860874
H  -1.337408   0.819539  -0.913784
H  -0.226995  -1.476740   1.075107
H   0.810739  -0.020840  -0.121852
H  -0.225932  -1.109244  -0.620423
