14
butane_opt
C  -3.973586   0.253506   0.033645
C  -2.703820  -0.601449   0.002888
H  -4.929148  -0.408702   0.017107
H  -3.988295   0.833288  -0.823575
H  -3.874914   0.965531   0.905380
C  -1.408861   0.196449   0.008026
H  -2.823999  -1.248128  -0.823886
H  -2.670761  -1.252159   0.885823
C  -0.124156  -0.698720   0.045879
H  -1.411912   0.933731   0.882033
H  -1.364705   0.832784  -0.900172
H  -0.053415  -1.460514   1.057692
H   0.744895  -0.178037  -0.102686
H  -0.124733  -1.297106  -0.741765
