14
butane_opt
C  -3.953933   0.278500   0.043835
C  -2.709521  -0.638841   0.005451
H  -4.834339  -0.303603   0.047638
H  -3.985930   0.808853  -0.828619
H  -3.993250   1.119247   1.024451
C  -1.385300   0.176387  -0.008086
H  -2.741332  -1.463920  -0.984185
H  -2.620035  -1.157323   0.775343
C  -0.177199  -0.680883   0.063474
H  -1.316664   0.809935   0.834618
H  -1.359227   0.842517  -0.962899
H  -0.041790  -1.531036   1.121712
H   0.730282  -0.089271  -0.184365
H  -0.159196  -1.110278  -0.612636
