butane_opt
 OpenBabel08242015413D

 14 13  0  0  0  0  0  0  0  0999 V2000
   -3.9540    0.2714   -0.0328 C   0  0  0  0  0  0  0  0  0  0  0  0
   -2.7001   -0.6521    0.0788 C   0  0  0  0  0  0  0  0  0  0  0  0
   -4.8196   -0.2661    0.1375 H   0  0  0  0  0  0  0  0  0  0  0  0
   -4.0290    1.0104   -0.9886 H   0  0  0  0  0  0  0  0  0  0  0  0
   -3.9863    0.8622    0.7805 H   0  0  0  0  0  0  0  0  0  0  0  0
   -1.4200    0.1887    0.0428 C   0  0  0  0  0  0  0  0  0  0  0  0
   -2.7254   -1.2079   -0.6781 H   0  0  0  0  0  0  0  0  0  0  0  0
   -2.6970   -1.3538    1.0784 H   0  0  0  0  0  0  0  0  0  0  0  0
   -0.1443   -0.6890   -0.0043 C   0  0  0  0  0  0  0  0  0  0  0  0
   -1.3553    0.9726    0.9711 H   0  0  0  0  0  0  0  0  0  0  0  0
   -1.3605    0.7883   -0.8241 H   0  0  0  0  0  0  0  0  0  0  0  0
   -0.1346   -1.1187    0.7413 H   0  0  0  0  0  0  0  0  0  0  0  0
    0.8025   -0.0434    0.1449 H   0  0  0  0  0  0  0  0  0  0  0  0
   -0.1066   -1.5410   -0.9753 H   0  0  0  0  0  0  0  0  0  0  0  0
  1  2  1  0  0  0  0
  1  3  1  0  0  0  0
  1  5  1  0  0  0  0
  2  8  1  0  0  0  0
  4  1  1  0  0  0  0
  6  2  1  0  0  0  0
  6 10  1  0  0  0  0
  7  2  1  0  0  0  0
  9  6  1  0  0  0  0
  9 13  1  0  0  0  0
  9 12  1  0  0  0  0
 11  6  1  0  0  0  0
 14  9  1  0  0  0  0
M  END
$$$$
