butane_opt
 OpenBabel08242015413D

 14 13  0  0  0  0  0  0  0  0999 V2000
   -3.9330    0.2276    0.0678 C   0  0  0  0  0  0  0  0  0  0  0  0
   -2.7034   -0.5812   -0.0168 C   0  0  0  0  0  0  0  0  0  0  0  0
   -4.8482   -0.3466    0.1482 H   0  0  0  0  0  0  0  0  0  0  0  0
   -3.9070    0.8347   -0.8004 H   0  0  0  0  0  0  0  0  0  0  0  0
   -3.8821    0.9583    0.9601 H   0  0  0  0  0  0  0  0  0  0  0  0
   -1.4302    0.2018   -0.0532 C   0  0  0  0  0  0  0  0  0  0  0  0
   -2.7798   -1.2134   -0.8383 H   0  0  0  0  0  0  0  0  0  0  0  0
   -2.6788   -1.1641    0.8331 H   0  0  0  0  0  0  0  0  0  0  0  0
   -0.1488   -0.7183    0.0806 C   0  0  0  0  0  0  0  0  0  0  0  0
   -1.3962    0.8846    0.7585 H   0  0  0  0  0  0  0  0  0  0  0  0
   -1.4629    0.8505   -0.9404 H   0  0  0  0  0  0  0  0  0  0  0  0
   -0.2558   -1.3489    1.0012 H   0  0  0  0  0  0  0  0  0  0  0  0
    0.7920   -0.1033    0.1679 H   0  0  0  0  0  0  0  0  0  0  0  0
   -0.0159   -1.3960   -0.7761 H   0  0  0  0  0  0  0  0  0  0  0  0
  1  3  1  0  0  0  0
  1  5  1  0  0  0  0
  2  1  1  0  0  0  0
  2  8  1  0  0  0  0
  4  1  1  0  0  0  0
  6  2  1  0  0  0  0
  6  9  1  0  0  0  0
  6 10  1  0  0  0  0
  7  2  1  0  0  0  0
  9 13  1  0  0  0  0
  9 12  1  0  0  0  0
 11  6  1  0  0  0  0
 14  9  1  0  0  0  0
M  END
$$$$
