butane_opt
 OpenBabel08242015413D

 14 13  0  0  0  0  0  0  0  0999 V2000
   -3.9501    0.2815   -0.0448 C   0  0  0  0  0  0  0  0  0  0  0  0
   -2.6847   -0.6297    0.0760 C   0  0  0  0  0  0  0  0  0  0  0  0
   -4.8225   -0.3383   -0.0035 H   0  0  0  0  0  0  0  0  0  0  0  0
   -3.9577    0.9345   -0.9875 H   0  0  0  0  0  0  0  0  0  0  0  0
   -3.9946    0.9595    0.7883 H   0  0  0  0  0  0  0  0  0  0  0  0
   -1.3977    0.1612    0.0931 C   0  0  0  0  0  0  0  0  0  0  0  0
   -2.6897   -1.2754   -0.7578 H   0  0  0  0  0  0  0  0  0  0  0  0
   -2.6807   -1.3085    1.0471 H   0  0  0  0  0  0  0  0  0  0  0  0
   -0.1652   -0.6781   -0.0159 C   0  0  0  0  0  0  0  0  0  0  0  0
   -1.3966    0.9039    0.9885 H   0  0  0  0  0  0  0  0  0  0  0  0
   -1.4482    0.7071   -0.7249 H   0  0  0  0  0  0  0  0  0  0  0  0
   -0.0165   -1.3812    0.9280 H   0  0  0  0  0  0  0  0  0  0  0  0
    0.8102   -0.0136   -0.2669 H   0  0  0  0  0  0  0  0  0  0  0  0
   -0.4565   -1.2617   -0.8672 H   0  0  0  0  0  0  0  0  0  0  0  0
  1  3  1  0  0  0  0
  1  2  1  0  0  0  0
  1  5  1  0  0  0  0
  2  6  1  0  0  0  0
  2  8  1  0  0  0  0
  4  1  1  0  0  0  0
  6 10  1  0  0  0  0
  7  2  1  0  0  0  0
  9  6  1  0  0  0  0
  9 12  1  0  0  0  0
 11  6  1  0  0  0  0
 13  9  1  0  0  0  0
 14  9  1  0  0  0  0
M  END
$$$$
