14
butane_opt
C  -3.950087   0.281476  -0.044837
C  -2.684706  -0.629725   0.075968
H  -4.822455  -0.338294  -0.003484
H  -3.957698   0.934472  -0.987485
H  -3.994556   0.959455   0.788258
C  -1.397685   0.161208   0.093062
H  -2.689741  -1.275404  -0.757814
H  -2.680730  -1.308542   1.047143
C  -0.165234  -0.678121  -0.015943
H  -1.396616   0.903854   0.988492
H  -1.448196   0.707109  -0.724928
H  -0.016514  -1.381157   0.927988
H   0.810218  -0.013622  -0.266944
H  -0.456536  -1.261685  -0.867196
