14
butane_opt
C  -3.957030   0.291567  -0.039963
C  -2.698674  -0.642224   0.108111
H  -4.860118  -0.275241  -0.201883
H  -3.908035   0.823274  -0.913754
H  -4.150756   0.988205   0.840761
C  -1.385909   0.160223   0.066005
H  -2.682106  -1.187535  -0.655190
H  -2.763820  -1.423374   1.136642
C  -0.167465  -0.660712  -0.028384
H  -1.274302   0.893114   0.956785
H  -1.431831   0.760968  -0.831086
H  -0.090221  -1.235710   0.845632
H   0.764761  -0.083245  -0.043790
H  -0.135884  -1.514880  -0.972831
