butane_opt
 OpenBabel08242015413D

 14 13  0  0  0  0  0  0  0  0999 V2000
   -3.9539    0.2785    0.0438 C   0  0  0  0  0  0  0  0  0  0  0  0
   -2.7095   -0.6388    0.0055 C   0  0  0  0  0  0  0  0  0  0  0  0
   -4.8343   -0.3036    0.0476 H   0  0  0  0  0  0  0  0  0  0  0  0
   -3.9859    0.8089   -0.8286 H   0  0  0  0  0  0  0  0  0  0  0  0
   -3.9933    1.1192    1.0245 H   0  0  0  0  0  0  0  0  0  0  0  0
   -1.3853    0.1764   -0.0081 C   0  0  0  0  0  0  0  0  0  0  0  0
   -2.7413   -1.4639   -0.9842 H   0  0  0  0  0  0  0  0  0  0  0  0
   -2.6200   -1.1573    0.7753 H   0  0  0  0  0  0  0  0  0  0  0  0
   -0.1772   -0.6809    0.0635 C   0  0  0  0  0  0  0  0  0  0  0  0
   -1.3167    0.8099    0.8346 H   0  0  0  0  0  0  0  0  0  0  0  0
   -1.3592    0.8425   -0.9629 H   0  0  0  0  0  0  0  0  0  0  0  0
   -0.0418   -1.5310    1.1217 H   0  0  0  0  0  0  0  0  0  0  0  0
    0.7303   -0.0893   -0.1844 H   0  0  0  0  0  0  0  0  0  0  0  0
   -0.1592   -1.1103   -0.6126 H   0  0  0  0  0  0  0  0  0  0  0  0
  1  3  1  0  0  0  0
  1  5  1  0  0  0  0
  2  1  1  0  0  0  0
  2  8  1  0  0  0  0
  4  1  1  0  0  0  0
  6  2  1  0  0  0  0
  6  9  1  0  0  0  0
  6 10  1  0  0  0  0
  7  2  1  0  0  0  0
  9 12  1  0  0  0  0
 11  6  1  0  0  0  0
 13  9  1  0  0  0  0
 14  9  1  0  0  0  0
M  END
$$$$
