14
butane_opt
C  -3.961624   0.288562   0.060449
C  -2.676915  -0.631585  -0.016629
H  -4.887135  -0.345272   0.228232
H  -4.109261   0.955244  -0.855898
H  -3.837225   0.947078   0.914693
C  -1.384862   0.155114  -0.031974
H  -2.686384  -1.430563  -0.913320
H  -2.753839  -1.157219   0.826147
C  -0.171057  -0.675563   0.085089
H  -1.399226   0.768529   0.803095
H  -1.315601   0.853599  -0.997317
H  -0.281657  -1.270890   0.993296
H   0.746822  -0.051622   0.034708
H  -0.167429  -1.371619  -0.763391
