14
butane_opt
C  -3.932997   0.227602   0.067808
C  -2.703419  -0.581152  -0.016844
H  -4.848198  -0.346585   0.148224
H  -3.907036   0.834680  -0.800426
H  -3.882104   0.958335   0.960129
C  -1.430150   0.201848  -0.053197
H  -2.779812  -1.213409  -0.838292
H  -2.678785  -1.164133   0.833096
C  -0.148763  -0.718263   0.080581
H  -1.396231   0.884640   0.758517
H  -1.462859   0.850468  -0.940420
H  -0.255751  -1.348879   1.001152
H   0.792040  -0.103336   0.167912
H  -0.015949  -1.395980  -0.776065
