butane_opt
 OpenBabel08242015413D

 14 13  0  0  0  0  0  0  0  0999 V2000
   -3.9100    0.2432    0.0634 C   0  0  0  0  0  0  0  0  0  0  0  0
   -2.7152   -0.5923   -0.0266 C   0  0  0  0  0  0  0  0  0  0  0  0
   -4.7895   -0.2996    0.2770 H   0  0  0  0  0  0  0  0  0  0  0  0
   -4.0239    0.9697   -0.8843 H   0  0  0  0  0  0  0  0  0  0  0  0
   -3.7732    0.8270    0.8920 H   0  0  0  0  0  0  0  0  0  0  0  0
   -1.4249    0.2015   -0.0216 C   0  0  0  0  0  0  0  0  0  0  0  0
   -2.8332   -1.3211   -0.9477 H   0  0  0  0  0  0  0  0  0  0  0  0
   -2.6836   -1.1860    0.8057 H   0  0  0  0  0  0  0  0  0  0  0  0
   -0.1681   -0.7082    0.0795 C   0  0  0  0  0  0  0  0  0  0  0  0
   -1.4930    0.8071    0.7396 H   0  0  0  0  0  0  0  0  0  0  0  0
   -1.3272    0.8410   -0.9179 H   0  0  0  0  0  0  0  0  0  0  0  0
   -0.1175   -1.3144    0.9742 H   0  0  0  0  0  0  0  0  0  0  0  0
    0.7506   -0.1713    0.1357 H   0  0  0  0  0  0  0  0  0  0  0  0
   -0.1170   -1.3432   -0.7774 H   0  0  0  0  0  0  0  0  0  0  0  0
  1  3  1  0  0  0  0
  1  5  1  0  0  0  0
  2  6  1  0  0  0  0
  2  1  1  0  0  0  0
  2  8  1  0  0  0  0
  4  1  1  0  0  0  0
  6  9  1  0  0  0  0
  6 10  1  0  0  0  0
  7  2  1  0  0  0  0
  9 13  1  0  0  0  0
  9 12  1  0  0  0  0
 11  6  1  0  0  0  0
 14  9  1  0  0  0  0
M  END
$$$$
