14
butane_opt
C  -3.924241   0.241446  -0.003758
C  -2.717729  -0.592745   0.079216
H  -4.881536  -0.346813   0.121043
H  -3.863786   0.962908  -1.005386
H  -3.954443   0.744571   0.702629
C  -1.423317   0.209296   0.021032
H  -2.638830  -1.162619  -0.708086
H  -2.701313  -1.286537   1.025449
C  -0.147016  -0.714408   0.000455
H  -1.413892   0.967856   0.925420
H  -1.443291   0.781697  -0.783794
H  -0.224451  -1.126301   0.765176
H   0.740741  -0.155064   0.222840
H  -0.079833  -1.599158  -1.021534
