butane_opt
 OpenBabel08242015413D

 14 13  0  0  0  0  0  0  0  0999 V2000
   -3.9414    0.2707   -0.0322 C   0  0  0  0  0  0  0  0  0  0  0  0
   -2.6869   -0.6218    0.0956 C   0  0  0  0  0  0  0  0  0  0  0  0
   -4.8603   -0.3108   -0.0911 H   0  0  0  0  0  0  0  0  0  0  0  0
   -3.8997    0.7859   -0.8778 H   0  0  0  0  0  0  0  0  0  0  0  0
   -4.0774    1.0877    0.9433 H   0  0  0  0  0  0  0  0  0  0  0  0
   -1.4008    0.1495    0.0518 C   0  0  0  0  0  0  0  0  0  0  0  0
   -2.5826   -1.2456   -0.7449 H   0  0  0  0  0  0  0  0  0  0  0  0
   -2.6619   -1.2263    0.9869 H   0  0  0  0  0  0  0  0  0  0  0  0
   -0.1778   -0.6776    0.0001 C   0  0  0  0  0  0  0  0  0  0  0  0
   -1.3478    0.7944    0.8544 H   0  0  0  0  0  0  0  0  0  0  0  0
   -1.4089    0.8377   -0.8993 H   0  0  0  0  0  0  0  0  0  0  0  0
   -0.1487   -1.2839    0.8845 H   0  0  0  0  0  0  0  0  0  0  0  0
    0.7561   -0.0286   -0.0570 H   0  0  0  0  0  0  0  0  0  0  0  0
   -0.2994   -1.3454   -0.9207 H   0  0  0  0  0  0  0  0  0  0  0  0
  1  2  1  0  0  0  0
  1  5  1  0  0  0  0
  2  8  1  0  0  0  0
  3  1  1  0  0  0  0
  4  1  1  0  0  0  0
  6  2  1  0  0  0  0
  6 10  1  0  0  0  0
  7  2  1  0  0  0  0
  9  6  1  0  0  0  0
  9 12  1  0  0  0  0
 11  6  1  0  0  0  0
 13  9  1  0  0  0  0
 14  9  1  0  0  0  0
M  END
$$$$
