14
butane_opt
C  -3.979645   0.294156   0.048375
C  -2.704061  -0.638356  -0.027658
H  -4.837824  -0.301960   0.271900
H  -4.125289   0.988014  -0.894682
H  -3.842434   0.872101   0.869543
C  -1.377634   0.148435   0.010194
H  -2.738840  -1.394541  -0.926375
H  -2.663683  -1.213854   0.831920
C  -0.153966  -0.662343   0.073854
H  -1.374844   0.797031   0.788664
H  -1.342834   0.858719  -0.932885
H  -0.163506  -1.368742   1.013232
H   0.768446  -0.067333  -0.038097
H  -0.137553  -1.328734  -0.806589
