butane_opt
 OpenBabel08242015413D

 14 13  0  0  0  0  0  0  0  0999 V2000
   -3.9796    0.2942    0.0484 C   0  0  0  0  0  0  0  0  0  0  0  0
   -2.7041   -0.6384   -0.0277 C   0  0  0  0  0  0  0  0  0  0  0  0
   -4.8378   -0.3020    0.2719 H   0  0  0  0  0  0  0  0  0  0  0  0
   -4.1253    0.9880   -0.8947 H   0  0  0  0  0  0  0  0  0  0  0  0
   -3.8424    0.8721    0.8695 H   0  0  0  0  0  0  0  0  0  0  0  0
   -1.3776    0.1484    0.0102 C   0  0  0  0  0  0  0  0  0  0  0  0
   -2.7388   -1.3945   -0.9264 H   0  0  0  0  0  0  0  0  0  0  0  0
   -2.6637   -1.2139    0.8319 H   0  0  0  0  0  0  0  0  0  0  0  0
   -0.1540   -0.6623    0.0739 C   0  0  0  0  0  0  0  0  0  0  0  0
   -1.3748    0.7970    0.7887 H   0  0  0  0  0  0  0  0  0  0  0  0
   -1.3428    0.8587   -0.9329 H   0  0  0  0  0  0  0  0  0  0  0  0
   -0.1635   -1.3687    1.0132 H   0  0  0  0  0  0  0  0  0  0  0  0
    0.7684   -0.0673   -0.0381 H   0  0  0  0  0  0  0  0  0  0  0  0
   -0.1376   -1.3287   -0.8066 H   0  0  0  0  0  0  0  0  0  0  0  0
  1  3  1  0  0  0  0
  1  5  1  0  0  0  0
  2  6  1  0  0  0  0
  2  1  1  0  0  0  0
  2  8  1  0  0  0  0
  4  1  1  0  0  0  0
  6  9  1  0  0  0  0
  6 10  1  0  0  0  0
  7  2  1  0  0  0  0
  9 12  1  0  0  0  0
 11  6  1  0  0  0  0
 13  9  1  0  0  0  0
 14  9  1  0  0  0  0
M  END
$$$$
