butane_opt
 OpenBabel08242015413D

 14 13  0  0  0  0  0  0  0  0999 V2000
   -3.9355    0.2466    0.0679 C   0  0  0  0  0  0  0  0  0  0  0  0
   -2.6978   -0.5800    0.0049 C   0  0  0  0  0  0  0  0  0  0  0  0
   -4.9119   -0.3806   -0.1943 H   0  0  0  0  0  0  0  0  0  0  0  0
   -3.7959    0.6236   -0.6926 H   0  0  0  0  0  0  0  0  0  0  0  0
   -4.0230    1.1464    1.0414 H   0  0  0  0  0  0  0  0  0  0  0  0
   -1.4131    0.1807   -0.0510 C   0  0  0  0  0  0  0  0  0  0  0  0
   -2.7717   -1.2302   -0.8429 H   0  0  0  0  0  0  0  0  0  0  0  0
   -2.6538   -1.2773    0.8857 H   0  0  0  0  0  0  0  0  0  0  0  0
   -0.1586   -0.6932    0.0737 C   0  0  0  0  0  0  0  0  0  0  0  0
   -1.4193    0.8444    0.7811 H   0  0  0  0  0  0  0  0  0  0  0  0
   -1.4584    0.8600   -0.9800 H   0  0  0  0  0  0  0  0  0  0  0  0
   -0.1403   -1.4703    1.1171 H   0  0  0  0  0  0  0  0  0  0  0  0
    0.7435   -0.1482   -0.0082 H   0  0  0  0  0  0  0  0  0  0  0  0
   -0.1340   -1.3041   -0.7699 H   0  0  0  0  0  0  0  0  0  0  0  0
  1  5  1  0  0  0  0
  2  1  1  0  0  0  0
  2  8  1  0  0  0  0
  3  1  1  0  0  0  0
  4  1  1  0  0  0  0
  6  2  1  0  0  0  0
  6  9  1  0  0  0  0
  6 10  1  0  0  0  0
  7  2  1  0  0  0  0
  9 12  1  0  0  0  0
 11  6  1  0  0  0  0
 13  9  1  0  0  0  0
 14  9  1  0  0  0  0
M  END
$$$$
