butane_opt
 OpenBabel08242015413D

 14 13  0  0  0  0  0  0  0  0999 V2000
   -3.9373    0.2461    0.0370 C   0  0  0  0  0  0  0  0  0  0  0  0
   -2.7035   -0.6034    0.0321 C   0  0  0  0  0  0  0  0  0  0  0  0
   -4.8100   -0.3253   -0.0602 H   0  0  0  0  0  0  0  0  0  0  0  0
   -3.9049    0.7766   -0.7859 H   0  0  0  0  0  0  0  0  0  0  0  0
   -4.0015    1.0201    0.9508 H   0  0  0  0  0  0  0  0  0  0  0  0
   -1.4142    0.1985   -0.0169 C   0  0  0  0  0  0  0  0  0  0  0  0
   -2.7391   -1.3273   -0.8337 H   0  0  0  0  0  0  0  0  0  0  0  0
   -2.6677   -1.1789    0.8674 H   0  0  0  0  0  0  0  0  0  0  0  0
   -0.1601   -0.7030    0.0496 C   0  0  0  0  0  0  0  0  0  0  0  0
   -1.4391    0.8665    0.8059 H   0  0  0  0  0  0  0  0  0  0  0  0
   -1.3815    0.8569   -0.9420 H   0  0  0  0  0  0  0  0  0  0  0  0
   -0.0986   -1.3810    0.9879 H   0  0  0  0  0  0  0  0  0  0  0  0
    0.7473   -0.1390   -0.0107 H   0  0  0  0  0  0  0  0  0  0  0  0
   -0.1435   -1.2990   -0.7446 H   0  0  0  0  0  0  0  0  0  0  0  0
  1  5  1  0  0  0  0
  2  1  1  0  0  0  0
  2  8  1  0  0  0  0
  3  1  1  0  0  0  0
  4  1  1  0  0  0  0
  6  2  1  0  0  0  0
  6  9  1  0  0  0  0
  6 10  1  0  0  0  0
  7  2  1  0  0  0  0
  9 12  1  0  0  0  0
 11  6  1  0  0  0  0
 13  9  1  0  0  0  0
 14  9  1  0  0  0  0
M  END
$$$$
