butane_opt
 OpenBabel08242015413D

 14 13  0  0  0  0  0  0  0  0999 V2000
   -3.9651    0.2964   -0.0432 C   0  0  0  0  0  0  0  0  0  0  0  0
   -2.7044   -0.6467    0.0893 C   0  0  0  0  0  0  0  0  0  0  0  0
   -4.8447   -0.3091   -0.0228 H   0  0  0  0  0  0  0  0  0  0  0  0
   -3.9270    0.9650   -0.9821 H   0  0  0  0  0  0  0  0  0  0  0  0
   -4.0896    0.8637    0.7595 H   0  0  0  0  0  0  0  0  0  0  0  0
   -1.3884    0.1633    0.0809 C   0  0  0  0  0  0  0  0  0  0  0  0
   -2.6878   -1.2730   -0.7166 H   0  0  0  0  0  0  0  0  0  0  0  0
   -2.7951   -1.3058    1.0350 H   0  0  0  0  0  0  0  0  0  0  0  0
   -0.1534   -0.6830   -0.0307 C   0  0  0  0  0  0  0  0  0  0  0  0
   -1.3286    1.0136    1.1069 H   0  0  0  0  0  0  0  0  0  0  0  0
   -1.3908    0.6796   -0.7178 H   0  0  0  0  0  0  0  0  0  0  0  0
    0.0111   -1.3669    0.9114 H   0  0  0  0  0  0  0  0  0  0  0  0
    0.8321   -0.0468   -0.2264 H   0  0  0  0  0  0  0  0  0  0  0  0
   -0.2858   -1.2339   -0.8630 H   0  0  0  0  0  0  0  0  0  0  0  0
  1  3  1  0  0  0  0
  1  2  1  0  0  0  0
  1  5  1  0  0  0  0
  2  8  1  0  0  0  0
  4  1  1  0  0  0  0
  6  2  1  0  0  0  0
  6 10  1  0  0  0  0
  7  2  1  0  0  0  0
  9  6  1  0  0  0  0
  9 12  1  0  0  0  0
 11  6  1  0  0  0  0
 13  9  1  0  0  0  0
 14  9  1  0  0  0  0
M  END
$$$$
