14
butane_opt
C  -3.960790   0.282104   0.037340
C  -2.720961  -0.626326   0.022407
H  -4.867075  -0.315468  -0.100157
H  -3.943011   0.797183  -0.768253
H  -4.021058   1.077383   0.996241
C  -1.385522   0.171595  -0.022446
H  -2.664143  -1.267931  -0.792139
H  -2.704272  -1.311456   0.966469
C  -0.160663  -0.688502   0.048601
H  -1.362263   0.815417   0.795709
H  -1.336087   0.743640  -0.906013
H  -0.077982  -1.335099   0.990782
H   0.806024  -0.031228   0.046945
H  -0.132444  -1.300774  -0.798494
