14
butane_opt
C  -3.939746   0.255720   0.049251
C  -2.698381  -0.612276   0.010482
H  -4.865299  -0.328506   0.087662
H  -3.989284   0.906466  -0.855359
H  -3.908042   0.963009   0.952624
C  -1.410970   0.183967  -0.033829
H  -2.720703  -1.354045  -0.857056
H  -2.675902  -1.205453   0.875461
C  -0.162594  -0.690646   0.065307
H  -1.421769   0.839903   0.804663
H  -1.383939   0.846116  -0.942126
H  -0.161503  -1.293525   0.961065
H   0.721008  -0.115606   0.116893
H  -0.077712  -1.372727  -0.799208
