14
butane_opt
C  -3.921148   0.258639   0.058004
C  -2.705240  -0.585975  -0.010689
H  -4.879005  -0.395271  -0.017011
H  -3.898840   0.785691  -0.812954
H  -3.911710   0.976031   0.980224
C  -1.415671   0.185802  -0.025990
H  -2.769494  -1.267065  -0.839950
H  -2.669986  -1.270667   0.896431
C  -0.166873  -0.697229   0.065932
H  -1.372936   0.889030   0.835084
H  -1.378499   0.778579  -0.930252
H  -0.120463  -1.472814   1.079363
H   0.698849  -0.144812   0.001418
H  -0.208992  -1.290146  -0.775591
