butane_opt
 OpenBabel08242015413D

 14 13  0  0  0  0  0  0  0  0999 V2000
   -3.9820    0.2773    0.0003 C   0  0  0  0  0  0  0  0  0  0  0  0
   -2.6958   -0.6459    0.0750 C   0  0  0  0  0  0  0  0  0  0  0  0
   -4.8700   -0.3032   -0.0692 H   0  0  0  0  0  0  0  0  0  0  0  0
   -3.9505    0.9522   -0.9266 H   0  0  0  0  0  0  0  0  0  0  0  0
   -4.0605    0.9234    0.8560 H   0  0  0  0  0  0  0  0  0  0  0  0
   -1.3882    0.1799    0.0107 C   0  0  0  0  0  0  0  0  0  0  0  0
   -2.6992   -1.1984   -0.6587 H   0  0  0  0  0  0  0  0  0  0  0  0
   -2.6557   -1.3498    1.0086 H   0  0  0  0  0  0  0  0  0  0  0  0
   -0.1533   -0.6807    0.0067 C   0  0  0  0  0  0  0  0  0  0  0  0
   -1.3012    0.9304    0.8979 H   0  0  0  0  0  0  0  0  0  0  0  0
   -1.4193    0.7631   -0.8498 H   0  0  0  0  0  0  0  0  0  0  0  0
   -0.2013   -1.1653    0.8000 H   0  0  0  0  0  0  0  0  0  0  0  0
    0.7950   -0.0617    0.1732 H   0  0  0  0  0  0  0  0  0  0  0  0
   -0.0375   -1.5292   -0.9289 H   0  0  0  0  0  0  0  0  0  0  0  0
  1  2  1  0  0  0  0
  1  5  1  0  0  0  0
  2  8  1  0  0  0  0
  3  1  1  0  0  0  0
  4  1  1  0  0  0  0
  6  2  1  0  0  0  0
  6 10  1  0  0  0  0
  7  2  1  0  0  0  0
  9  6  1  0  0  0  0
  9 13  1  0  0  0  0
  9 12  1  0  0  0  0
 11  6  1  0  0  0  0
 14  9  1  0  0  0  0
M  END
$$$$
