14
butane_opt
C  -3.940298   0.245521   0.053036
C  -2.722102  -0.580937  -0.018748
H  -4.896081  -0.396651   0.202504
H  -4.007805   0.923795  -0.879792
H  -3.823393   0.830397   0.888939
C  -1.419101   0.195239  -0.012684
H  -2.705719  -1.194195  -0.868364
H  -2.773144  -1.231655   0.890132
C  -0.134922  -0.705826   0.062296
H  -1.404997   0.890682   0.843386
H  -1.316664   0.806025  -0.894546
H  -0.116844  -1.370782   0.978239
H   0.742247  -0.208471   0.089987
H  -0.110721  -1.381077  -0.814724
