butane_opt
 OpenBabel08242015413D

 14 13  0  0  0  0  0  0  0  0999 V2000
   -3.9386    0.2792    0.0608 C   0  0  0  0  0  0  0  0  0  0  0  0
   -2.6894   -0.6372   -0.0032 C   0  0  0  0  0  0  0  0  0  0  0  0
   -4.8574   -0.3125    0.0133 H   0  0  0  0  0  0  0  0  0  0  0  0
   -4.0209    0.7209   -0.7017 H   0  0  0  0  0  0  0  0  0  0  0  0
   -3.9440    1.1297    1.0563 H   0  0  0  0  0  0  0  0  0  0  0  0
   -1.3970    0.1674   -0.0687 C   0  0  0  0  0  0  0  0  0  0  0  0
   -2.6944   -1.2424   -0.7921 H   0  0  0  0  0  0  0  0  0  0  0  0
   -2.6826   -1.2748    0.8463 H   0  0  0  0  0  0  0  0  0  0  0  0
   -0.1782   -0.6878    0.0864 C   0  0  0  0  0  0  0  0  0  0  0  0
   -1.4287    0.8024    0.7499 H   0  0  0  0  0  0  0  0  0  0  0  0
   -1.4153    0.8675   -1.0041 H   0  0  0  0  0  0  0  0  0  0  0  0
   -0.2735   -1.2407    1.0097 H   0  0  0  0  0  0  0  0  0  0  0  0
    0.7869   -0.0246    0.1478 H   0  0  0  0  0  0  0  0  0  0  0  0
   -0.0648   -1.3603   -0.7705 H   0  0  0  0  0  0  0  0  0  0  0  0
  1  5  1  0  0  0  0
  2  1  1  0  0  0  0
  2  8  1  0  0  0  0
  3  1  1  0  0  0  0
  4  1  1  0  0  0  0
  6  2  1  0  0  0  0
  6  9  1  0  0  0  0
  6 10  1  0  0  0  0
  7  2  1  0  0  0  0
  9 13  1  0  0  0  0
  9 12  1  0  0  0  0
 11  6  1  0  0  0  0
 14  9  1  0  0  0  0
M  END
$$$$
