butane_opt
 OpenBabel08242015413D

 14 13  0  0  0  0  0  0  0  0999 V2000
   -3.9181    0.2787    0.0589 C   0  0  0  0  0  0  0  0  0  0  0  0
   -2.7049   -0.6386   -0.0009 C   0  0  0  0  0  0  0  0  0  0  0  0
   -4.8586   -0.3273    0.1671 H   0  0  0  0  0  0  0  0  0  0  0  0
   -4.0491    0.9443   -0.8354 H   0  0  0  0  0  0  0  0  0  0  0  0
   -3.8884    0.9345    0.8605 H   0  0  0  0  0  0  0  0  0  0  0  0
   -1.3975    0.1826   -0.0529 C   0  0  0  0  0  0  0  0  0  0  0  0
   -2.7523   -1.3468   -0.8322 H   0  0  0  0  0  0  0  0  0  0  0  0
   -2.6444   -1.2280    0.8567 H   0  0  0  0  0  0  0  0  0  0  0  0
   -0.1813   -0.6935    0.0698 C   0  0  0  0  0  0  0  0  0  0  0  0
   -1.3651    0.8698    0.8174 H   0  0  0  0  0  0  0  0  0  0  0  0
   -1.4523    0.7956   -0.9076 H   0  0  0  0  0  0  0  0  0  0  0  0
   -0.2474   -1.2130    0.9433 H   0  0  0  0  0  0  0  0  0  0  0  0
    0.7324   -0.1018    0.2342 H   0  0  0  0  0  0  0  0  0  0  0  0
   -0.0780   -1.3528   -0.7662 H   0  0  0  0  0  0  0  0  0  0  0  0
  1  3  1  0  0  0  0
  1  5  1  0  0  0  0
  2  1  1  0  0  0  0
  2  8  1  0  0  0  0
  4  1  1  0  0  0  0
  6  2  1  0  0  0  0
  6  9  1  0  0  0  0
  6 10  1  0  0  0  0
  7  2  1  0  0  0  0
  9 13  1  0  0  0  0
  9 12  1  0  0  0  0
 11  6  1  0  0  0  0
 14  9  1  0  0  0  0
M  END
$$$$
