butane_opt
 OpenBabel08242015413D

 14 13  0  0  0  0  0  0  0  0999 V2000
   -3.9337    0.2491    0.0419 C   0  0  0  0  0  0  0  0  0  0  0  0
   -2.7007   -0.6034    0.0192 C   0  0  0  0  0  0  0  0  0  0  0  0
   -4.8312   -0.3399   -0.0738 H   0  0  0  0  0  0  0  0  0  0  0  0
   -3.9356    0.7623   -0.7836 H   0  0  0  0  0  0  0  0  0  0  0  0
   -4.0052    1.0516    0.9856 H   0  0  0  0  0  0  0  0  0  0  0  0
   -1.4117    0.2017   -0.0215 C   0  0  0  0  0  0  0  0  0  0  0  0
   -2.7307   -1.2849   -0.8394 H   0  0  0  0  0  0  0  0  0  0  0  0
   -2.6915   -1.2544    0.9253 H   0  0  0  0  0  0  0  0  0  0  0  0
   -0.1616   -0.7064    0.0499 C   0  0  0  0  0  0  0  0  0  0  0  0
   -1.4014    0.8464    0.8093 H   0  0  0  0  0  0  0  0  0  0  0  0
   -1.4460    0.8206   -0.9081 H   0  0  0  0  0  0  0  0  0  0  0  0
   -0.1587   -1.3774    1.0220 H   0  0  0  0  0  0  0  0  0  0  0  0
    0.7564   -0.0905   -0.0091 H   0  0  0  0  0  0  0  0  0  0  0  0
   -0.0827   -1.2976   -0.7439 H   0  0  0  0  0  0  0  0  0  0  0  0
  1  5  1  0  0  0  0
  2  1  1  0  0  0  0
  2  8  1  0  0  0  0
  3  1  1  0  0  0  0
  4  1  1  0  0  0  0
  6  2  1  0  0  0  0
  6  9  1  0  0  0  0
  6 10  1  0  0  0  0
  7  2  1  0  0  0  0
  9 12  1  0  0  0  0
 11  6  1  0  0  0  0
 13  9  1  0  0  0  0
 14  9  1  0  0  0  0
M  END
$$$$
