butane_opt
 OpenBabel08242015413D

 14 13  0  0  0  0  0  0  0  0999 V2000
   -3.9290    0.2888    0.0477 C   0  0  0  0  0  0  0  0  0  0  0  0
   -2.6818   -0.6458   -0.0094 C   0  0  0  0  0  0  0  0  0  0  0  0
   -4.8784   -0.3248    0.2040 H   0  0  0  0  0  0  0  0  0  0  0  0
   -4.0699    0.8791   -0.8116 H   0  0  0  0  0  0  0  0  0  0  0  0
   -3.9179    0.9679    0.9633 H   0  0  0  0  0  0  0  0  0  0  0  0
   -1.4016    0.1838   -0.0345 C   0  0  0  0  0  0  0  0  0  0  0  0
   -2.6969   -1.3928   -0.9223 H   0  0  0  0  0  0  0  0  0  0  0  0
   -2.6808   -1.2030    0.8426 H   0  0  0  0  0  0  0  0  0  0  0  0
   -0.1906   -0.6763    0.0693 C   0  0  0  0  0  0  0  0  0  0  0  0
   -1.4109    0.8202    0.8182 H   0  0  0  0  0  0  0  0  0  0  0  0
   -1.3282    0.7345   -0.8600 H   0  0  0  0  0  0  0  0  0  0  0  0
   -0.2247   -1.4300    1.0416 H   0  0  0  0  0  0  0  0  0  0  0  0
    0.7505   -0.0851    0.0099 H   0  0  0  0  0  0  0  0  0  0  0  0
   -0.1301   -1.2303   -0.7068 H   0  0  0  0  0  0  0  0  0  0  0  0
  1  3  1  0  0  0  0
  1  5  1  0  0  0  0
  2  1  1  0  0  0  0
  2  8  1  0  0  0  0
  4  1  1  0  0  0  0
  6  2  1  0  0  0  0
  6  9  1  0  0  0  0
  6 10  1  0  0  0  0
  7  2  1  0  0  0  0
  9 12  1  0  0  0  0
 11  6  1  0  0  0  0
 13  9  1  0  0  0  0
 14  9  1  0  0  0  0
M  END
$$$$
