14
butane_opt
C  -3.928998   0.288781   0.047720
C  -2.681801  -0.645843  -0.009435
H  -4.878437  -0.324791   0.204022
H  -4.069864   0.879125  -0.811598
H  -3.917898   0.967946   0.963270
C  -1.401591   0.183804  -0.034458
H  -2.696865  -1.392850  -0.922309
H  -2.680801  -1.203037   0.842643
C  -0.190572  -0.676338   0.069292
H  -1.410946   0.820215   0.818225
H  -1.328243   0.734461  -0.859957
H  -0.224660  -1.429951   1.041560
H   0.750492  -0.085057   0.009948
H  -0.130073  -1.230289  -0.706827
