butane_opt
 OpenBabel08242015413D

 14 13  0  0  0  0  0  0  0  0999 V2000
   -3.9562    0.2728   -0.0119 C   0  0  0  0  0  0  0  0  0  0  0  0
   -2.6684   -0.6193    0.0916 C   0  0  0  0  0  0  0  0  0  0  0  0
   -4.9294   -0.3874    0.0806 H   0  0  0  0  0  0  0  0  0  0  0  0
   -3.8916    1.0021   -1.0065 H   0  0  0  0  0  0  0  0  0  0  0  0
   -3.9865    0.8506    0.7859 H   0  0  0  0  0  0  0  0  0  0  0  0
   -1.4042    0.1737    0.0234 C   0  0  0  0  0  0  0  0  0  0  0  0
   -2.7032   -1.1938   -0.6903 H   0  0  0  0  0  0  0  0  0  0  0  0
   -2.6872   -1.3375    1.0165 H   0  0  0  0  0  0  0  0  0  0  0  0
   -0.1825   -0.6918   -0.0068 C   0  0  0  0  0  0  0  0  0  0  0  0
   -1.4006    0.9190    0.9095 H   0  0  0  0  0  0  0  0  0  0  0  0
   -1.3777    0.7329   -0.8339 H   0  0  0  0  0  0  0  0  0  0  0  0
   -0.2988   -1.0556    0.7338 H   0  0  0  0  0  0  0  0  0  0  0  0
    0.7994   -0.0835    0.2472 H   0  0  0  0  0  0  0  0  0  0  0  0
   -0.0119   -1.5440   -0.9976 H   0  0  0  0  0  0  0  0  0  0  0  0
  1  3  1  0  0  0  0
  1  2  1  0  0  0  0
  1  5  1  0  0  0  0
  2  8  1  0  0  0  0
  4  1  1  0  0  0  0
  6  2  1  0  0  0  0
  6 10  1  0  0  0  0
  7  2  1  0  0  0  0
  9  6  1  0  0  0  0
  9 13  1  0  0  0  0
  9 12  1  0  0  0  0
 11  6  1  0  0  0  0
 14  9  1  0  0  0  0
M  END
$$$$
