14
butane_opt
C  -3.949410   0.279661  -0.028278
C  -2.682244  -0.615267   0.106550
H  -4.878809  -0.319598  -0.115735
H  -3.789395   0.869599  -0.904666
H  -4.056998   0.938903   0.828345
C  -1.395607   0.168796   0.059700
H  -2.599412  -1.324792  -0.767786
H  -2.752772  -1.260617   1.016888
C  -0.189678  -0.690331  -0.027244
H  -1.267854   0.816265   0.914305
H  -1.441722   0.754696  -0.817260
H  -0.168533  -1.281775   0.865928
H   0.774134  -0.075894  -0.004374
H  -0.240981  -1.296027  -0.885064
