14
butane_opt
C  -3.942616   0.247979  -0.002817
C  -2.718024  -0.604322   0.048865
H  -4.864806  -0.333041   0.055059
H  -4.005301   0.912528  -0.927996
H  -3.969865   0.901584   0.837792
C  -1.399873   0.201302   0.038661
H  -2.707591  -1.251996  -0.785298
H  -2.748472  -1.211509   0.964857
C  -0.151833  -0.710530   0.007714
H  -1.357679   0.934263   0.932823
H  -1.398655   0.795022  -0.820261
H  -0.055324  -1.376470   0.957189
H   0.771180  -0.117527  -0.056421
H  -0.130930  -1.345077  -0.827474
