butane_opt
 OpenBabel08242015413D

 14 13  0  0  0  0  0  0  0  0999 V2000
   -3.9700    0.2701   -0.0378 C   0  0  0  0  0  0  0  0  0  0  0  0
   -2.6879   -0.6246    0.0913 C   0  0  0  0  0  0  0  0  0  0  0  0
   -4.9163   -0.3104   -0.0509 H   0  0  0  0  0  0  0  0  0  0  0  0
   -4.0061    0.8628   -0.9366 H   0  0  0  0  0  0  0  0  0  0  0  0
   -4.0016    0.9374    0.7894 H   0  0  0  0  0  0  0  0  0  0  0  0
   -1.3980    0.1830    0.0709 C   0  0  0  0  0  0  0  0  0  0  0  0
   -2.6719   -1.2523   -0.7372 H   0  0  0  0  0  0  0  0  0  0  0  0
   -2.6590   -1.2511    0.9628 H   0  0  0  0  0  0  0  0  0  0  0  0
   -0.1524   -0.6870   -0.0237 C   0  0  0  0  0  0  0  0  0  0  0  0
   -1.2580    0.9406    1.0001 H   0  0  0  0  0  0  0  0  0  0  0  0
   -1.4411    0.6558   -0.7573 H   0  0  0  0  0  0  0  0  0  0  0  0
   -0.1022   -1.4217    0.9720 H   0  0  0  0  0  0  0  0  0  0  0  0
    0.7677   -0.0731   -0.1841 H   0  0  0  0  0  0  0  0  0  0  0  0
   -0.2315   -1.2598   -0.8190 H   0  0  0  0  0  0  0  0  0  0  0  0
  1  2  1  0  0  0  0
  1  5  1  0  0  0  0
  2  8  1  0  0  0  0
  3  1  1  0  0  0  0
  4  1  1  0  0  0  0
  6  2  1  0  0  0  0
  6 10  1  0  0  0  0
  7  2  1  0  0  0  0
  9  6  1  0  0  0  0
  9 12  1  0  0  0  0
 11  6  1  0  0  0  0
 13  9  1  0  0  0  0
 14  9  1  0  0  0  0
M  END
$$$$
