butane_opt
 OpenBabel08242015413D

 14 13  0  0  0  0  0  0  0  0999 V2000
   -3.9457    0.2812   -0.0360 C   0  0  0  0  0  0  0  0  0  0  0  0
   -2.6872   -0.6363    0.0812 C   0  0  0  0  0  0  0  0  0  0  0  0
   -4.7885   -0.3045   -0.0752 H   0  0  0  0  0  0  0  0  0  0  0  0
   -4.0310    0.9176   -0.9344 H   0  0  0  0  0  0  0  0  0  0  0  0
   -4.0267    0.9582    0.8197 H   0  0  0  0  0  0  0  0  0  0  0  0
   -1.3916    0.1692    0.0928 C   0  0  0  0  0  0  0  0  0  0  0  0
   -2.6301   -1.2601   -0.7847 H   0  0  0  0  0  0  0  0  0  0  0  0
   -2.7366   -1.3180    1.0144 H   0  0  0  0  0  0  0  0  0  0  0  0
   -0.1878   -0.6730   -0.0237 C   0  0  0  0  0  0  0  0  0  0  0  0
   -1.2933    0.8507    0.9556 H   0  0  0  0  0  0  0  0  0  0  0  0
   -1.3475    0.7653   -0.7762 H   0  0  0  0  0  0  0  0  0  0  0  0
   -0.0709   -1.4175    0.9322 H   0  0  0  0  0  0  0  0  0  0  0  0
    0.7372   -0.0681   -0.1963 H   0  0  0  0  0  0  0  0  0  0  0  0
   -0.2865   -1.2811   -0.8806 H   0  0  0  0  0  0  0  0  0  0  0  0
  1  2  1  0  0  0  0
  1  5  1  0  0  0  0
  2  6  1  0  0  0  0
  2  8  1  0  0  0  0
  3  1  1  0  0  0  0
  4  1  1  0  0  0  0
  6 10  1  0  0  0  0
  7  2  1  0  0  0  0
  9  6  1  0  0  0  0
  9 12  1  0  0  0  0
 11  6  1  0  0  0  0
 13  9  1  0  0  0  0
 14  9  1  0  0  0  0
M  END
$$$$
