butane_opt
 OpenBabel08242015413D

 14 13  0  0  0  0  0  0  0  0999 V2000
   -3.9492    0.2732    0.0554 C   0  0  0  0  0  0  0  0  0  0  0  0
   -2.7003   -0.6202   -0.0162 C   0  0  0  0  0  0  0  0  0  0  0  0
   -4.8614   -0.3180    0.1897 H   0  0  0  0  0  0  0  0  0  0  0  0
   -4.0614    0.9631   -0.8703 H   0  0  0  0  0  0  0  0  0  0  0  0
   -3.8332    0.8922    0.8844 H   0  0  0  0  0  0  0  0  0  0  0  0
   -1.4038    0.1698   -0.0139 C   0  0  0  0  0  0  0  0  0  0  0  0
   -2.6998   -1.3759   -0.9078 H   0  0  0  0  0  0  0  0  0  0  0  0
   -2.6585   -1.2071    0.8493 H   0  0  0  0  0  0  0  0  0  0  0  0
   -0.1655   -0.6851    0.0707 C   0  0  0  0  0  0  0  0  0  0  0  0
   -1.3739    0.8244    0.7997 H   0  0  0  0  0  0  0  0  0  0  0  0
   -1.3676    0.8380   -0.9254 H   0  0  0  0  0  0  0  0  0  0  0  0
   -0.1884   -1.3476    0.9958 H   0  0  0  0  0  0  0  0  0  0  0  0
    0.7817   -0.0543    0.0504 H   0  0  0  0  0  0  0  0  0  0  0  0
   -0.1407   -1.3304   -0.7790 H   0  0  0  0  0  0  0  0  0  0  0  0
  1  3  1  0  0  0  0
  1  5  1  0  0  0  0
  2  6  1  0  0  0  0
  2  1  1  0  0  0  0
  2  8  1  0  0  0  0
  4  1  1  0  0  0  0
  6  9  1  0  0  0  0
  6 10  1  0  0  0  0
  7  2  1  0  0  0  0
  9 12  1  0  0  0  0
 11  6  1  0  0  0  0
 13  9  1  0  0  0  0
 14  9  1  0  0  0  0
M  END
$$$$
