14
butane_opt
C  -3.942374   0.242407  -0.041554
C  -2.709086  -0.605078   0.129434
H  -4.861982  -0.364078  -0.277136
H  -3.809960   0.761731  -0.906410
H  -4.072657   1.006750   0.871210
C  -1.410167   0.224723   0.054887
H  -2.601799  -1.233494  -0.653195
H  -2.808506  -1.322358   1.134607
C  -0.144126  -0.714690  -0.035884
H  -1.316122   0.981128   0.969092
H  -1.476369   0.840332  -0.825017
H  -0.122146  -1.300021   0.778459
H   0.677568  -0.214193  -0.020855
H  -0.137481  -1.416083  -0.906201
