14
butane_opt
C  -3.920238   0.249059   0.079335
C  -2.716720  -0.599896  -0.010545
H  -4.860424  -0.403681  -0.038858
H  -3.933579   0.760619  -0.756500
H  -3.823751   1.022688   1.055794
C  -1.422276   0.213303  -0.065881
H  -2.752874  -1.285474  -0.846121
H  -2.674200  -1.179207   0.866699
C  -0.158882  -0.717037   0.085375
H  -1.384489   0.769747   0.671676
H  -1.385577   0.948904  -1.017846
H  -0.263657  -1.259079   0.984776
H   0.686529  -0.210390   0.220301
H   0.003298  -1.400893  -0.756473
