14
butane_opt
C  -3.952599   0.279456   0.059716
C  -2.681899  -0.637709  -0.003667
H  -4.830367  -0.313736  -0.049725
H  -4.002835   0.794193  -0.783065
H  -3.917372   1.124693   1.071095
C  -1.398106   0.165626  -0.035522
H  -2.723557  -1.383650  -0.920971
H  -2.594747  -1.202646   0.798394
C  -0.185343  -0.679948   0.068386
H  -1.321200   0.836050   0.797047
H  -1.328399   0.846510  -0.943526
H  -0.215150  -1.487199   1.112774
H   0.728186  -0.047444  -0.069999
H  -0.198852  -1.161379  -0.608988
