butane_opt
 OpenBabel08242015413D

 14 13  0  0  0  0  0  0  0  0999 V2000
   -3.9526    0.2795    0.0597 C   0  0  0  0  0  0  0  0  0  0  0  0
   -2.6819   -0.6377   -0.0037 C   0  0  0  0  0  0  0  0  0  0  0  0
   -4.8304   -0.3137   -0.0497 H   0  0  0  0  0  0  0  0  0  0  0  0
   -4.0028    0.7942   -0.7831 H   0  0  0  0  0  0  0  0  0  0  0  0
   -3.9174    1.1247    1.0711 H   0  0  0  0  0  0  0  0  0  0  0  0
   -1.3981    0.1656   -0.0355 C   0  0  0  0  0  0  0  0  0  0  0  0
   -2.7236   -1.3837   -0.9210 H   0  0  0  0  0  0  0  0  0  0  0  0
   -2.5947   -1.2026    0.7984 H   0  0  0  0  0  0  0  0  0  0  0  0
   -0.1853   -0.6799    0.0684 C   0  0  0  0  0  0  0  0  0  0  0  0
   -1.3212    0.8360    0.7970 H   0  0  0  0  0  0  0  0  0  0  0  0
   -1.3284    0.8465   -0.9435 H   0  0  0  0  0  0  0  0  0  0  0  0
   -0.2152   -1.4872    1.1128 H   0  0  0  0  0  0  0  0  0  0  0  0
    0.7282   -0.0474   -0.0700 H   0  0  0  0  0  0  0  0  0  0  0  0
   -0.1989   -1.1614   -0.6090 H   0  0  0  0  0  0  0  0  0  0  0  0
  1  5  1  0  0  0  0
  2  1  1  0  0  0  0
  2  8  1  0  0  0  0
  3  1  1  0  0  0  0
  4  1  1  0  0  0  0
  6  2  1  0  0  0  0
  6  9  1  0  0  0  0
  6 10  1  0  0  0  0
  7  2  1  0  0  0  0
  9 12  1  0  0  0  0
 11  6  1  0  0  0  0
 13  9  1  0  0  0  0
 14  9  1  0  0  0  0
M  END
$$$$
