butane_opt
 OpenBabel08242015413D

 14 13  0  0  0  0  0  0  0  0999 V2000
   -3.9424    0.2424   -0.0416 C   0  0  0  0  0  0  0  0  0  0  0  0
   -2.7091   -0.6051    0.1294 C   0  0  0  0  0  0  0  0  0  0  0  0
   -4.8620   -0.3641   -0.2771 H   0  0  0  0  0  0  0  0  0  0  0  0
   -3.8100    0.7617   -0.9064 H   0  0  0  0  0  0  0  0  0  0  0  0
   -4.0727    1.0068    0.8712 H   0  0  0  0  0  0  0  0  0  0  0  0
   -1.4102    0.2247    0.0549 C   0  0  0  0  0  0  0  0  0  0  0  0
   -2.6018   -1.2335   -0.6532 H   0  0  0  0  0  0  0  0  0  0  0  0
   -2.8085   -1.3224    1.1346 H   0  0  0  0  0  0  0  0  0  0  0  0
   -0.1441   -0.7147   -0.0359 C   0  0  0  0  0  0  0  0  0  0  0  0
   -1.3161    0.9811    0.9691 H   0  0  0  0  0  0  0  0  0  0  0  0
   -1.4764    0.8403   -0.8250 H   0  0  0  0  0  0  0  0  0  0  0  0
   -0.1221   -1.3000    0.7785 H   0  0  0  0  0  0  0  0  0  0  0  0
    0.6776   -0.2142   -0.0209 H   0  0  0  0  0  0  0  0  0  0  0  0
   -0.1375   -1.4161   -0.9062 H   0  0  0  0  0  0  0  0  0  0  0  0
  1  2  1  0  0  0  0
  1  5  1  0  0  0  0
  2  8  1  0  0  0  0
  3  1  1  0  0  0  0
  4  1  1  0  0  0  0
  6  2  1  0  0  0  0
  6 10  1  0  0  0  0
  7  2  1  0  0  0  0
  9 13  1  0  0  0  0
  9  6  1  0  0  0  0
  9 12  1  0  0  0  0
 11  6  1  0  0  0  0
 14  9  1  0  0  0  0
M  END
$$$$
