14
butane_opt
C  -3.951709   0.258088  -0.043272
C  -2.712524  -0.617483   0.118209
H  -4.816794  -0.302149  -0.190182
H  -3.888989   0.784044  -0.891871
H  -4.000790   0.979443   0.909623
C  -1.402685   0.213225   0.064150
H  -2.661821  -1.329126  -0.728964
H  -2.853663  -1.311437   1.047538
C  -0.138573  -0.703606  -0.018715
H  -1.445116   0.883820   0.878619
H  -1.477606   0.867072  -0.861581
H  -0.010571  -1.285822   0.840607
H   0.760204  -0.134945  -0.086996
H  -0.174090  -1.413246  -0.917436
