butane_opt
 OpenBabel08242015413D

 14 13  0  0  0  0  0  0  0  0999 V2000
   -3.9584    0.2699   -0.0299 C   0  0  0  0  0  0  0  0  0  0  0  0
   -2.7260   -0.6247    0.0618 C   0  0  0  0  0  0  0  0  0  0  0  0
   -4.8387   -0.2914    0.1529 H   0  0  0  0  0  0  0  0  0  0  0  0
   -4.0466    0.9826   -1.0157 H   0  0  0  0  0  0  0  0  0  0  0  0
   -3.9771    0.9485    0.8314 H   0  0  0  0  0  0  0  0  0  0  0  0
   -1.3867    0.1682    0.0761 C   0  0  0  0  0  0  0  0  0  0  0  0
   -2.7132   -1.3479   -0.8198 H   0  0  0  0  0  0  0  0  0  0  0  0
   -2.7259   -1.2171    0.9287 H   0  0  0  0  0  0  0  0  0  0  0  0
   -0.1359   -0.6808    0.0016 C   0  0  0  0  0  0  0  0  0  0  0  0
   -1.3193    0.8400    0.9767 H   0  0  0  0  0  0  0  0  0  0  0  0
   -1.4093    0.8190   -0.8305 H   0  0  0  0  0  0  0  0  0  0  0  0
   -0.0477   -1.3633    0.9302 H   0  0  0  0  0  0  0  0  0  0  0  0
    0.7938   -0.1186   -0.1681 H   0  0  0  0  0  0  0  0  0  0  0  0
   -0.2566   -1.2996   -0.8570 H   0  0  0  0  0  0  0  0  0  0  0  0
  1  2  1  0  0  0  0
  1  3  1  0  0  0  0
  1  5  1  0  0  0  0
  2  6  1  0  0  0  0
  2  8  1  0  0  0  0
  4  1  1  0  0  0  0
  6 10  1  0  0  0  0
  7  2  1  0  0  0  0
  9  6  1  0  0  0  0
  9 12  1  0  0  0  0
 11  6  1  0  0  0  0
 13  9  1  0  0  0  0
 14  9  1  0  0  0  0
M  END
$$$$
