butane_opt
 OpenBabel08242015413D

 14 13  0  0  0  0  0  0  0  0999 V2000
   -3.9306    0.2812    0.0458 C   0  0  0  0  0  0  0  0  0  0  0  0
   -2.6682   -0.6455   -0.0276 C   0  0  0  0  0  0  0  0  0  0  0  0
   -4.8259   -0.2880    0.3096 H   0  0  0  0  0  0  0  0  0  0  0  0
   -4.1829    0.9756   -0.8823 H   0  0  0  0  0  0  0  0  0  0  0  0
   -3.9158    0.9071    0.8587 H   0  0  0  0  0  0  0  0  0  0  0  0
   -1.4086    0.1661   -0.0043 C   0  0  0  0  0  0  0  0  0  0  0  0
   -2.7309   -1.3541   -0.8926 H   0  0  0  0  0  0  0  0  0  0  0  0
   -2.7252   -1.2794    0.8496 H   0  0  0  0  0  0  0  0  0  0  0  0
   -0.1775   -0.6835    0.0698 C   0  0  0  0  0  0  0  0  0  0  0  0
   -1.3668    0.8574    0.8639 H   0  0  0  0  0  0  0  0  0  0  0  0
   -1.4167    0.8590   -0.9176 H   0  0  0  0  0  0  0  0  0  0  0  0
   -0.2087   -1.2543    0.9768 H   0  0  0  0  0  0  0  0  0  0  0  0
    0.7640   -0.0651    0.0385 H   0  0  0  0  0  0  0  0  0  0  0  0
   -0.1912   -1.2431   -0.7613 H   0  0  0  0  0  0  0  0  0  0  0  0
  1  3  1  0  0  0  0
  1  5  1  0  0  0  0
  2  6  1  0  0  0  0
  2  1  1  0  0  0  0
  2  8  1  0  0  0  0
  4  1  1  0  0  0  0
  6  9  1  0  0  0  0
  6 10  1  0  0  0  0
  7  2  1  0  0  0  0
  9 12  1  0  0  0  0
 11  6  1  0  0  0  0
 13  9  1  0  0  0  0
 14  9  1  0  0  0  0
M  END
$$$$
