butane_opt
 OpenBabel08242015413D

 14 13  0  0  0  0  0  0  0  0999 V2000
   -3.9517    0.2602    0.0645 C   0  0  0  0  0  0  0  0  0  0  0  0
   -2.7069   -0.6011   -0.0250 C   0  0  0  0  0  0  0  0  0  0  0  0
   -4.9398   -0.3868    0.2272 H   0  0  0  0  0  0  0  0  0  0  0  0
   -4.0243    0.9146   -0.8507 H   0  0  0  0  0  0  0  0  0  0  0  0
   -3.7971    0.8779    0.8656 H   0  0  0  0  0  0  0  0  0  0  0  0
   -1.4070    0.1935   -0.0346 C   0  0  0  0  0  0  0  0  0  0  0  0
   -2.8258   -1.3385   -0.9200 H   0  0  0  0  0  0  0  0  0  0  0  0
   -2.6796   -1.2232    0.8299 H   0  0  0  0  0  0  0  0  0  0  0  0
   -0.1490   -0.7093    0.0833 C   0  0  0  0  0  0  0  0  0  0  0  0
   -1.4399    0.9852    0.8536 H   0  0  0  0  0  0  0  0  0  0  0  0
   -1.3074    0.7754   -0.9212 H   0  0  0  0  0  0  0  0  0  0  0  0
   -0.1376   -1.3568    1.0109 H   0  0  0  0  0  0  0  0  0  0  0  0
    0.7234   -0.1588   -0.0357 H   0  0  0  0  0  0  0  0  0  0  0  0
   -0.0199   -1.2854   -0.6881 H   0  0  0  0  0  0  0  0  0  0  0  0
  1  3  1  0  0  0  0
  1  5  1  0  0  0  0
  2  1  1  0  0  0  0
  2  8  1  0  0  0  0
  4  1  1  0  0  0  0
  6  2  1  0  0  0  0
  6  9  1  0  0  0  0
  6 10  1  0  0  0  0
  7  2  1  0  0  0  0
  9 12  1  0  0  0  0
 11  6  1  0  0  0  0
 13  9  1  0  0  0  0
 14  9  1  0  0  0  0
M  END
$$$$
