butane_opt
 OpenBabel08242015413D

 14 13  0  0  0  0  0  0  0  0999 V2000
   -3.9223    0.2752    0.0318 C   0  0  0  0  0  0  0  0  0  0  0  0
   -2.6995   -0.6241    0.0323 C   0  0  0  0  0  0  0  0  0  0  0  0
   -4.8123   -0.3109    0.1730 H   0  0  0  0  0  0  0  0  0  0  0  0
   -4.0352    1.0715   -0.9347 H   0  0  0  0  0  0  0  0  0  0  0  0
   -3.8868    0.8174    0.7917 H   0  0  0  0  0  0  0  0  0  0  0  0
   -1.4063    0.1638   -0.0043 C   0  0  0  0  0  0  0  0  0  0  0  0
   -2.7366   -1.4018   -0.8501 H   0  0  0  0  0  0  0  0  0  0  0  0
   -2.6279   -1.2339    0.8793 H   0  0  0  0  0  0  0  0  0  0  0  0
   -0.1865   -0.6774    0.0418 C   0  0  0  0  0  0  0  0  0  0  0  0
   -1.3818    0.9103    0.8695 H   0  0  0  0  0  0  0  0  0  0  0  0
   -1.3073    0.7833   -0.9211 H   0  0  0  0  0  0  0  0  0  0  0  0
   -0.2306   -1.2206    0.8775 H   0  0  0  0  0  0  0  0  0  0  0  0
    0.7019   -0.1313    0.1658 H   0  0  0  0  0  0  0  0  0  0  0  0
   -0.1321   -1.4020   -0.8591 H   0  0  0  0  0  0  0  0  0  0  0  0
  1  2  1  0  0  0  0
  1  3  1  0  0  0  0
  1  5  1  0  0  0  0
  2  8  1  0  0  0  0
  4  1  1  0  0  0  0
  6  2  1  0  0  0  0
  6  9  1  0  0  0  0
  6 10  1  0  0  0  0
  7  2  1  0  0  0  0
  9 13  1  0  0  0  0
  9 12  1  0  0  0  0
 11  6  1  0  0  0  0
 14  9  1  0  0  0  0
M  END
$$$$
