butane_opt
 OpenBabel08242015413D

 14 13  0  0  0  0  0  0  0  0999 V2000
   -3.9568    0.2611    0.0138 C   0  0  0  0  0  0  0  0  0  0  0  0
   -2.7055   -0.6108    0.0371 C   0  0  0  0  0  0  0  0  0  0  0  0
   -4.8222   -0.3078   -0.0481 H   0  0  0  0  0  0  0  0  0  0  0  0
   -3.9467    0.8167   -0.8845 H   0  0  0  0  0  0  0  0  0  0  0  0
   -4.0383    0.8488    0.8608 H   0  0  0  0  0  0  0  0  0  0  0  0
   -1.4124    0.1967    0.0442 C   0  0  0  0  0  0  0  0  0  0  0  0
   -2.7268   -1.2738   -0.8363 H   0  0  0  0  0  0  0  0  0  0  0  0
   -2.8346   -1.1994    0.9307 H   0  0  0  0  0  0  0  0  0  0  0  0
   -0.1316   -0.6995    0.0155 C   0  0  0  0  0  0  0  0  0  0  0  0
   -1.4354    0.8669    0.8907 H   0  0  0  0  0  0  0  0  0  0  0  0
   -1.4068    0.8286   -0.8453 H   0  0  0  0  0  0  0  0  0  0  0  0
    0.0843   -1.4303    0.9892 H   0  0  0  0  0  0  0  0  0  0  0  0
    0.7832   -0.1093   -0.1554 H   0  0  0  0  0  0  0  0  0  0  0  0
   -0.2156   -1.2725   -0.7714 H   0  0  0  0  0  0  0  0  0  0  0  0
  1  2  1  0  0  0  0
  1  5  1  0  0  0  0
  2  6  1  0  0  0  0
  2  8  1  0  0  0  0
  3  1  1  0  0  0  0
  4  1  1  0  0  0  0
  6 10  1  0  0  0  0
  7  2  1  0  0  0  0
  9  6  1  0  0  0  0
  9 12  1  0  0  0  0
 11  6  1  0  0  0  0
 13  9  1  0  0  0  0
 14  9  1  0  0  0  0
M  END
$$$$
