butane_opt
 OpenBabel08242015413D

 14 13  0  0  0  0  0  0  0  0999 V2000
   -3.9748    0.2927    0.0283 C   0  0  0  0  0  0  0  0  0  0  0  0
   -2.6776   -0.6580    0.0507 C   0  0  0  0  0  0  0  0  0  0  0  0
   -4.8507   -0.2697   -0.1286 H   0  0  0  0  0  0  0  0  0  0  0  0
   -3.9472    0.6776   -0.7080 H   0  0  0  0  0  0  0  0  0  0  0  0
   -4.1746    1.1105    0.9733 H   0  0  0  0  0  0  0  0  0  0  0  0
   -1.3844    0.1825   -0.0148 C   0  0  0  0  0  0  0  0  0  0  0  0
   -2.7307   -1.4007   -0.8435 H   0  0  0  0  0  0  0  0  0  0  0  0
   -2.6899   -1.2206    0.8270 H   0  0  0  0  0  0  0  0  0  0  0  0
   -0.1649   -0.6728    0.0471 C   0  0  0  0  0  0  0  0  0  0  0  0
   -1.3508    0.8020    0.7915 H   0  0  0  0  0  0  0  0  0  0  0  0
   -1.3268    0.8516   -0.9493 H   0  0  0  0  0  0  0  0  0  0  0  0
   -0.1310   -1.4390    0.9832 H   0  0  0  0  0  0  0  0  0  0  0  0
    0.7460   -0.0846   -0.0720 H   0  0  0  0  0  0  0  0  0  0  0  0
   -0.1536   -1.2248   -0.7275 H   0  0  0  0  0  0  0  0  0  0  0  0
  1  2  1  0  0  0  0
  1  5  1  0  0  0  0
  2  8  1  0  0  0  0
  3  1  1  0  0  0  0
  4  1  1  0  0  0  0
  6  9  1  0  0  0  0
  6  2  1  0  0  0  0
  6 10  1  0  0  0  0
  7  2  1  0  0  0  0
  9 12  1  0  0  0  0
 11  6  1  0  0  0  0
 13  9  1  0  0  0  0
 14  9  1  0  0  0  0
M  END
$$$$
