14
butane_opt
C  -3.974842   0.292740   0.028294
C  -2.677589  -0.657993   0.050687
H  -4.850662  -0.269684  -0.128561
H  -3.947197   0.677607  -0.708018
H  -4.174633   1.110515   0.973313
C  -1.384407   0.182455  -0.014846
H  -2.730664  -1.400689  -0.843472
H  -2.689866  -1.220585   0.827006
C  -0.164941  -0.672793   0.047081
H  -1.350785   0.801972   0.791510
H  -1.326829   0.851563  -0.949315
H  -0.130990  -1.438958   0.983208
H   0.745959  -0.084649  -0.071953
H  -0.153623  -1.224815  -0.727499
