14
butane_opt
C  -3.951702   0.260178   0.064515
C  -2.706863  -0.601099  -0.025045
H  -4.939822  -0.386780   0.227211
H  -4.024327   0.914648  -0.850689
H  -3.797120   0.877867   0.865564
C  -1.407015   0.193542  -0.034630
H  -2.825779  -1.338503  -0.920008
H  -2.679603  -1.223170   0.829853
C  -0.149000  -0.709327   0.083258
H  -1.439892   0.985245   0.853561
H  -1.307448   0.775386  -0.921224
H  -0.137614  -1.356773   1.010916
H   0.723411  -0.158794  -0.035722
H  -0.019882  -1.285377  -0.688106
