butane_opt
 OpenBabel08242015413D

 14 13  0  0  0  0  0  0  0  0999 V2000
   -3.9482    0.2785    0.0711 C   0  0  0  0  0  0  0  0  0  0  0  0
   -2.6850   -0.6272   -0.0420 C   0  0  0  0  0  0  0  0  0  0  0  0
   -4.8579   -0.3411    0.3512 H   0  0  0  0  0  0  0  0  0  0  0  0
   -4.0614    0.9481   -0.8330 H   0  0  0  0  0  0  0  0  0  0  0  0
   -3.8027    0.8414    0.8443 H   0  0  0  0  0  0  0  0  0  0  0  0
   -1.4113    0.1689   -0.0349 C   0  0  0  0  0  0  0  0  0  0  0  0
   -2.7414   -1.3501   -0.9213 H   0  0  0  0  0  0  0  0  0  0  0  0
   -2.6337   -1.1227    0.7824 H   0  0  0  0  0  0  0  0  0  0  0  0
   -0.1798   -0.6871    0.0950 C   0  0  0  0  0  0  0  0  0  0  0  0
   -1.5027    0.7987    0.8011 H   0  0  0  0  0  0  0  0  0  0  0  0
   -1.2594    0.8428   -0.9846 H   0  0  0  0  0  0  0  0  0  0  0  0
   -0.1526   -1.2754    0.9630 H   0  0  0  0  0  0  0  0  0  0  0  0
    0.7961   -0.0661    0.0798 H   0  0  0  0  0  0  0  0  0  0  0  0
   -0.1311   -1.3337   -0.7241 H   0  0  0  0  0  0  0  0  0  0  0  0
  1  3  1  0  0  0  0
  1  5  1  0  0  0  0
  2  6  1  0  0  0  0
  2  1  1  0  0  0  0
  2  8  1  0  0  0  0
  4  1  1  0  0  0  0
  6  9  1  0  0  0  0
  6 10  1  0  0  0  0
  7  2  1  0  0  0  0
  9 12  1  0  0  0  0
 11  6  1  0  0  0  0
 13  9  1  0  0  0  0
 14  9  1  0  0  0  0
M  END
$$$$
