14
butane_opt
C  -3.944536   0.268891  -0.009199
C  -2.691072  -0.611134   0.056059
H  -4.880380  -0.341465   0.036515
H  -3.969745   0.910804  -0.944762
H  -3.939240   0.959829   0.859812
C  -1.390417   0.165124   0.045942
H  -2.688162  -1.281001  -0.790637
H  -2.729686  -1.275748   0.971848
C  -0.180197  -0.687601   0.007581
H  -1.367343   0.906699   0.906370
H  -1.422156   0.772307  -0.827270
H  -0.085863  -1.344162   0.928372
H   0.767929  -0.082056  -0.065911
H  -0.234158  -1.315918  -0.831049
