14
butane_opt
C  -3.951630   0.264762   0.001632
C  -2.698927  -0.613486   0.061762
H  -4.865741  -0.289441   0.131751
H  -4.041836   0.983779  -0.980507
H  -3.999008   0.818873   0.773069
C  -1.400224   0.178659   0.028989
H  -2.713108  -1.347285  -0.834801
H  -2.724087  -1.247795   0.947089
C  -0.151415  -0.691234   0.013681
H  -1.318175   0.894899   0.885835
H  -1.427130   0.791514  -0.845093
H  -0.125076  -1.227721   0.857638
H   0.768152  -0.092609   0.101214
H  -0.145281  -1.418237  -0.877096
