14
butane_opt
C  -3.973005   0.277531   0.013031
C  -2.685720  -0.618530   0.041128
H  -4.835257  -0.278677   0.150493
H  -4.047914   0.917616  -0.944896
H  -3.889172   0.859065   0.849664
C  -1.391538   0.153270   0.016994
H  -2.623989  -1.294673  -0.834420
H  -2.622582  -1.291742   0.972751
C  -0.173629  -0.674173   0.029188
H  -1.341156   0.750222   0.838736
H  -1.388495   0.890420  -0.933854
H  -0.234969  -1.153410   0.823629
H   0.757888  -0.045267   0.240479
H  -0.117108  -1.475997  -0.940922
