butane_opt
 OpenBabel08242015413D

 14 13  0  0  0  0  0  0  0  0999 V2000
   -3.9520    0.2648    0.0197 C   0  0  0  0  0  0  0  0  0  0  0  0
   -2.7150   -0.6261    0.0141 C   0  0  0  0  0  0  0  0  0  0  0  0
   -4.8309   -0.3032   -0.0245 H   0  0  0  0  0  0  0  0  0  0  0  0
   -4.0826    0.8045   -0.8121 H   0  0  0  0  0  0  0  0  0  0  0  0
   -4.0476    1.0231    0.9264 H   0  0  0  0  0  0  0  0  0  0  0  0
   -1.4079    0.1832    0.0236 C   0  0  0  0  0  0  0  0  0  0  0  0
   -2.7153   -1.2958   -0.8038 H   0  0  0  0  0  0  0  0  0  0  0  0
   -2.6643   -1.2182    0.8986 H   0  0  0  0  0  0  0  0  0  0  0  0
   -0.1331   -0.6883    0.0298 C   0  0  0  0  0  0  0  0  0  0  0  0
   -1.3539    0.8665    0.8621 H   0  0  0  0  0  0  0  0  0  0  0  0
   -1.4074    0.7940   -0.8090 H   0  0  0  0  0  0  0  0  0  0  0  0
   -0.0954   -1.5101    1.1013 H   0  0  0  0  0  0  0  0  0  0  0  0
    0.8004   -0.0499   -0.1958 H   0  0  0  0  0  0  0  0  0  0  0  0
   -0.1280   -1.1868   -0.7329 H   0  0  0  0  0  0  0  0  0  0  0  0
  1  5  1  0  0  0  0
  2  1  1  0  0  0  0
  2  6  1  0  0  0  0
  2  8  1  0  0  0  0
  3  1  1  0  0  0  0
  4  1  1  0  0  0  0
  6  9  1  0  0  0  0
  6 10  1  0  0  0  0
  7  2  1  0  0  0  0
  9 12  1  0  0  0  0
 11  6  1  0  0  0  0
 13  9  1  0  0  0  0
 14  9  1  0  0  0  0
M  END
$$$$
