14
butane_opt
C  -3.956466   0.240438   0.051953
C  -2.714604  -0.614837  -0.037358
H  -4.856325  -0.334915   0.262026
H  -4.106456   0.924572  -0.860474
H  -3.815971   0.824098   0.893135
C  -1.404466   0.232341  -0.004312
H  -2.711006  -1.270982  -0.888855
H  -2.681605  -1.187130   0.863777
C  -0.144816  -0.723173   0.068907
H  -1.404133   0.913680   0.837093
H  -1.419546   0.877945  -0.904204
H  -0.106313  -1.369497   1.026872
H   0.739205  -0.171183  -0.009619
H  -0.007140  -1.304985  -0.734581
