14
butane_opt
C  -3.979149   0.262955  -0.018595
C  -2.699739  -0.612419   0.075333
H  -4.888877  -0.341817   0.095359
H  -4.017374   0.953894  -0.954284
H  -3.875927   0.794754   0.744968
C  -1.389393   0.206630   0.044577
H  -2.718483  -1.277503  -0.772812
H  -2.764586  -1.275043   1.009035
C  -0.140684  -0.704706   0.007426
H  -1.350656   0.809382   0.902452
H  -1.447378   0.861053  -0.846432
H  -0.103270  -1.129092   0.759626
H   0.759094  -0.135696   0.099588
H  -0.110494  -1.557324  -0.936559
