butane_opt
 OpenBabel08242015413D

 14 13  0  0  0  0  0  0  0  0999 V2000
   -3.9453    0.2791    0.0069 C   0  0  0  0  0  0  0  0  0  0  0  0
   -2.6593   -0.6389    0.0567 C   0  0  0  0  0  0  0  0  0  0  0  0
   -4.8576   -0.2842   -0.0512 H   0  0  0  0  0  0  0  0  0  0  0  0
   -3.9552    0.8845   -0.9067 H   0  0  0  0  0  0  0  0  0  0  0  0
   -3.9412    0.9074    0.8659 H   0  0  0  0  0  0  0  0  0  0  0  0
   -1.4056    0.1831    0.0395 C   0  0  0  0  0  0  0  0  0  0  0  0
   -2.6564   -1.3760   -0.8874 H   0  0  0  0  0  0  0  0  0  0  0  0
   -2.7092   -1.1959    0.8998 H   0  0  0  0  0  0  0  0  0  0  0  0
   -0.1945   -0.6774    0.0178 C   0  0  0  0  0  0  0  0  0  0  0  0
   -1.3896    0.8523    0.8714 H   0  0  0  0  0  0  0  0  0  0  0  0
   -1.3859    0.7218   -0.8132 H   0  0  0  0  0  0  0  0  0  0  0  0
   -0.1173   -1.4240    0.9746 H   0  0  0  0  0  0  0  0  0  0  0  0
    0.7217   -0.1059   -0.1963 H   0  0  0  0  0  0  0  0  0  0  0  0
   -0.2775   -1.1913   -0.7590 H   0  0  0  0  0  0  0  0  0  0  0  0
  1  2  1  0  0  0  0
  1  5  1  0  0  0  0
  2  8  1  0  0  0  0
  3  1  1  0  0  0  0
  4  1  1  0  0  0  0
  6  2  1  0  0  0  0
  6 10  1  0  0  0  0
  7  2  1  0  0  0  0
  9  6  1  0  0  0  0
  9 12  1  0  0  0  0
 11  6  1  0  0  0  0
 13  9  1  0  0  0  0
 14  9  1  0  0  0  0
M  END
$$$$
