14
butane_opt
C  -3.924147   0.258206   0.046319
C  -2.711352  -0.610790  -0.022638
H  -4.813315  -0.358580   0.159003
H  -3.969700   0.850322  -0.791389
H  -3.825366   1.019809   1.036030
C  -1.411508   0.191889  -0.013479
H  -2.676235  -1.322653  -0.915184
H  -2.675449  -1.203545   0.821013
C  -0.184966  -0.694345   0.065586
H  -1.423467   0.830968   0.800260
H  -1.319817   0.825214  -0.905631
H  -0.119438  -1.503609   1.108125
H   0.710594  -0.143443  -0.067113
H  -0.130093  -1.198367  -0.685676
