butane_opt
 OpenBabel08242015413D

 14 13  0  0  0  0  0  0  0  0999 V2000
   -3.9578    0.2381   -0.0170 C   0  0  0  0  0  0  0  0  0  0  0  0
   -2.7276   -0.5824    0.0901 C   0  0  0  0  0  0  0  0  0  0  0  0
   -4.8386   -0.3171    0.0906 H   0  0  0  0  0  0  0  0  0  0  0  0
   -3.9098    0.9279   -0.9985 H   0  0  0  0  0  0  0  0  0  0  0  0
   -3.9717    0.8225    0.7619 H   0  0  0  0  0  0  0  0  0  0  0  0
   -1.3850    0.2064    0.0123 C   0  0  0  0  0  0  0  0  0  0  0  0
   -2.7965   -1.1312   -0.6929 H   0  0  0  0  0  0  0  0  0  0  0  0
   -2.7547   -1.3035    1.1066 H   0  0  0  0  0  0  0  0  0  0  0  0
   -0.1319   -0.7214    0.0030 C   0  0  0  0  0  0  0  0  0  0  0  0
   -1.4031    0.9315    0.8958 H   0  0  0  0  0  0  0  0  0  0  0  0
   -1.4752    0.7385   -0.7863 H   0  0  0  0  0  0  0  0  0  0  0  0
   -0.1661   -1.0533    0.7371 H   0  0  0  0  0  0  0  0  0  0  0  0
    0.7568   -0.1554    0.2740 H   0  0  0  0  0  0  0  0  0  0  0  0
   -0.0287   -1.6314   -1.0459 H   0  0  0  0  0  0  0  0  0  0  0  0
  1  2  1  0  0  0  0
  1  3  1  0  0  0  0
  1  5  1  0  0  0  0
  2  8  1  0  0  0  0
  4  1  1  0  0  0  0
  6  2  1  0  0  0  0
  6 10  1  0  0  0  0
  7  2  1  0  0  0  0
  9  6  1  0  0  0  0
  9 13  1  0  0  0  0
  9 12  1  0  0  0  0
 11  6  1  0  0  0  0
 14  9  1  0  0  0  0
M  END
$$$$
