butane_opt
 OpenBabel08242015413D

 14 13  0  0  0  0  0  0  0  0999 V2000
   -3.9791    0.2630   -0.0186 C   0  0  0  0  0  0  0  0  0  0  0  0
   -2.6997   -0.6124    0.0753 C   0  0  0  0  0  0  0  0  0  0  0  0
   -4.8889   -0.3418    0.0954 H   0  0  0  0  0  0  0  0  0  0  0  0
   -4.0174    0.9539   -0.9543 H   0  0  0  0  0  0  0  0  0  0  0  0
   -3.8759    0.7948    0.7450 H   0  0  0  0  0  0  0  0  0  0  0  0
   -1.3894    0.2066    0.0446 C   0  0  0  0  0  0  0  0  0  0  0  0
   -2.7185   -1.2775   -0.7728 H   0  0  0  0  0  0  0  0  0  0  0  0
   -2.7646   -1.2750    1.0090 H   0  0  0  0  0  0  0  0  0  0  0  0
   -0.1407   -0.7047    0.0074 C   0  0  0  0  0  0  0  0  0  0  0  0
   -1.3507    0.8094    0.9025 H   0  0  0  0  0  0  0  0  0  0  0  0
   -1.4474    0.8611   -0.8464 H   0  0  0  0  0  0  0  0  0  0  0  0
   -0.1033   -1.1291    0.7596 H   0  0  0  0  0  0  0  0  0  0  0  0
    0.7591   -0.1357    0.0996 H   0  0  0  0  0  0  0  0  0  0  0  0
   -0.1105   -1.5573   -0.9366 H   0  0  0  0  0  0  0  0  0  0  0  0
  1  2  1  0  0  0  0
  1  3  1  0  0  0  0
  1  5  1  0  0  0  0
  2  8  1  0  0  0  0
  4  1  1  0  0  0  0
  6  2  1  0  0  0  0
  6 10  1  0  0  0  0
  7  2  1  0  0  0  0
  9  6  1  0  0  0  0
  9 13  1  0  0  0  0
  9 12  1  0  0  0  0
 11  6  1  0  0  0  0
 14  9  1  0  0  0  0
M  END
$$$$
