14
butane_opt
C  -3.971075   0.288674   0.065738
C  -2.696413  -0.640437  -0.025404
H  -4.914402  -0.330838   0.275742
H  -4.039188   1.062814  -0.902625
H  -3.970261   0.845176   0.840486
C  -1.367917   0.170946  -0.015662
H  -2.760156  -1.415404  -1.000661
H  -2.640443  -1.220119   0.817188
C  -0.166857  -0.680271   0.071538
H  -1.356589   0.844244   0.836862
H  -1.364246   0.819340  -0.903380
H  -0.174815  -1.365949   1.046003
H   0.764682  -0.041595   0.034351
H  -0.142728  -1.332463  -0.758473
