14
butane_opt
C  -3.938513   0.242501   0.046526
C  -2.697431  -0.584051   0.021885
H  -4.848910  -0.415221  -0.136870
H  -3.885757   0.667531  -0.707140
H  -3.846866   1.067321   1.047688
C  -1.418289   0.207515  -0.027961
H  -2.654942  -1.344609  -0.853250
H  -2.674476  -1.176468   0.854850
C  -0.173354  -0.716317   0.066575
H  -1.485088   0.818601   0.743696
H  -1.364098   0.965646  -1.021077
H  -0.121614  -1.409416   1.010686
H   0.718757  -0.136064  -0.037802
H  -0.125647  -1.311198  -0.725404
