butane_opt
 OpenBabel08242015413D

 14 13  0  0  0  0  0  0  0  0999 V2000
   -3.9385    0.2425    0.0465 C   0  0  0  0  0  0  0  0  0  0  0  0
   -2.6974   -0.5841    0.0219 C   0  0  0  0  0  0  0  0  0  0  0  0
   -4.8489   -0.4152   -0.1369 H   0  0  0  0  0  0  0  0  0  0  0  0
   -3.8858    0.6675   -0.7071 H   0  0  0  0  0  0  0  0  0  0  0  0
   -3.8469    1.0673    1.0477 H   0  0  0  0  0  0  0  0  0  0  0  0
   -1.4183    0.2075   -0.0280 C   0  0  0  0  0  0  0  0  0  0  0  0
   -2.6549   -1.3446   -0.8532 H   0  0  0  0  0  0  0  0  0  0  0  0
   -2.6745   -1.1765    0.8548 H   0  0  0  0  0  0  0  0  0  0  0  0
   -0.1734   -0.7163    0.0666 C   0  0  0  0  0  0  0  0  0  0  0  0
   -1.4851    0.8186    0.7437 H   0  0  0  0  0  0  0  0  0  0  0  0
   -1.3641    0.9656   -1.0211 H   0  0  0  0  0  0  0  0  0  0  0  0
   -0.1216   -1.4094    1.0107 H   0  0  0  0  0  0  0  0  0  0  0  0
    0.7188   -0.1361   -0.0378 H   0  0  0  0  0  0  0  0  0  0  0  0
   -0.1256   -1.3112   -0.7254 H   0  0  0  0  0  0  0  0  0  0  0  0
  1  5  1  0  0  0  0
  2  1  1  0  0  0  0
  2  8  1  0  0  0  0
  3  1  1  0  0  0  0
  4  1  1  0  0  0  0
  6  2  1  0  0  0  0
  6  9  1  0  0  0  0
  6 10  1  0  0  0  0
  7  2  1  0  0  0  0
  9 12  1  0  0  0  0
 11  6  1  0  0  0  0
 13  9  1  0  0  0  0
 14  9  1  0  0  0  0
M  END
$$$$
