butane_opt
 OpenBabel08242015413D

 14 13  0  0  0  0  0  0  0  0999 V2000
   -3.9210    0.2466   -0.0286 C   0  0  0  0  0  0  0  0  0  0  0  0
   -2.6994   -0.5862    0.0924 C   0  0  0  0  0  0  0  0  0  0  0  0
   -4.8507   -0.3786   -0.1707 H   0  0  0  0  0  0  0  0  0  0  0  0
   -3.7740    0.7314   -0.8382 H   0  0  0  0  0  0  0  0  0  0  0  0
   -4.0334    0.9907    0.8918 H   0  0  0  0  0  0  0  0  0  0  0  0
   -1.4403    0.1992    0.0553 C   0  0  0  0  0  0  0  0  0  0  0  0
   -2.7355   -1.2074   -0.7288 H   0  0  0  0  0  0  0  0  0  0  0  0
   -2.7294   -1.2950    1.0397 H   0  0  0  0  0  0  0  0  0  0  0  0
   -0.1669   -0.7121   -0.0094 C   0  0  0  0  0  0  0  0  0  0  0  0
   -1.3795    0.8342    0.8770 H   0  0  0  0  0  0  0  0  0  0  0  0
   -1.4374    0.9190   -0.8483 H   0  0  0  0  0  0  0  0  0  0  0  0
   -0.0128   -1.3184    0.8726 H   0  0  0  0  0  0  0  0  0  0  0  0
    0.8254   -0.0916   -0.0506 H   0  0  0  0  0  0  0  0  0  0  0  0
   -0.1730   -1.4288   -0.9135 H   0  0  0  0  0  0  0  0  0  0  0  0
  1  2  1  0  0  0  0
  1  5  1  0  0  0  0
  2  8  1  0  0  0  0
  3  1  1  0  0  0  0
  4  1  1  0  0  0  0
  6  2  1  0  0  0  0
  6 10  1  0  0  0  0
  7  2  1  0  0  0  0
  9  6  1  0  0  0  0
  9 12  1  0  0  0  0
 11  6  1  0  0  0  0
 13  9  1  0  0  0  0
 14  9  1  0  0  0  0
M  END
$$$$
