butane_opt
 OpenBabel08242015413D

 14 13  0  0  0  0  0  0  0  0999 V2000
   -3.9522    0.2668    0.0550 C   0  0  0  0  0  0  0  0  0  0  0  0
   -2.7063   -0.6259   -0.0048 C   0  0  0  0  0  0  0  0  0  0  0  0
   -4.8855   -0.3684   -0.0046 H   0  0  0  0  0  0  0  0  0  0  0  0
   -3.9559    0.8109   -0.7651 H   0  0  0  0  0  0  0  0  0  0  0  0
   -3.9533    0.9871    0.9385 H   0  0  0  0  0  0  0  0  0  0  0  0
   -1.4119    0.2097   -0.0155 C   0  0  0  0  0  0  0  0  0  0  0  0
   -2.7205   -1.3368   -0.8635 H   0  0  0  0  0  0  0  0  0  0  0  0
   -2.7190   -1.2290    0.8349 H   0  0  0  0  0  0  0  0  0  0  0  0
   -0.1525   -0.7036    0.0708 C   0  0  0  0  0  0  0  0  0  0  0  0
   -1.4344    0.8199    0.7981 H   0  0  0  0  0  0  0  0  0  0  0  0
   -1.2605    0.8897   -0.9292 H   0  0  0  0  0  0  0  0  0  0  0  0
   -0.0333   -1.3566    0.9950 H   0  0  0  0  0  0  0  0  0  0  0  0
    0.7308   -0.1839   -0.1288 H   0  0  0  0  0  0  0  0  0  0  0  0
   -0.1172   -1.2702   -0.6975 H   0  0  0  0  0  0  0  0  0  0  0  0
  1  5  1  0  0  0  0
  2  1  1  0  0  0  0
  2  8  1  0  0  0  0
  3  1  1  0  0  0  0
  4  1  1  0  0  0  0
  6  2  1  0  0  0  0
  6  9  1  0  0  0  0
  6 10  1  0  0  0  0
  7  2  1  0  0  0  0
  9 12  1  0  0  0  0
 11  6  1  0  0  0  0
 13  9  1  0  0  0  0
 14  9  1  0  0  0  0
M  END
$$$$
