butane_opt
 OpenBabel08242015413D

 14 13  0  0  0  0  0  0  0  0999 V2000
   -3.9380    0.2505    0.0020 C   0  0  0  0  0  0  0  0  0  0  0  0
   -2.6918   -0.5979    0.0392 C   0  0  0  0  0  0  0  0  0  0  0  0
   -4.9308   -0.4031    0.2495 H   0  0  0  0  0  0  0  0  0  0  0  0
   -4.0199    1.0669   -0.9830 H   0  0  0  0  0  0  0  0  0  0  0  0
   -3.8219    0.7508    0.7270 H   0  0  0  0  0  0  0  0  0  0  0  0
   -1.4089    0.1954    0.0407 C   0  0  0  0  0  0  0  0  0  0  0  0
   -2.6515   -1.2559   -0.8116 H   0  0  0  0  0  0  0  0  0  0  0  0
   -2.6491   -1.1784    0.8870 H   0  0  0  0  0  0  0  0  0  0  0  0
   -0.1827   -0.7098    0.0288 C   0  0  0  0  0  0  0  0  0  0  0  0
   -1.4809    0.8742    0.9265 H   0  0  0  0  0  0  0  0  0  0  0  0
   -1.3222    0.7862   -0.8457 H   0  0  0  0  0  0  0  0  0  0  0  0
   -0.0790   -1.2663    0.8367 H   0  0  0  0  0  0  0  0  0  0  0  0
    0.7791   -0.0584    0.0100 H   0  0  0  0  0  0  0  0  0  0  0  0
   -0.1860   -1.4502   -0.9199 H   0  0  0  0  0  0  0  0  0  0  0  0
  1  2  1  0  0  0  0
  1  3  1  0  0  0  0
  1  5  1  0  0  0  0
  2  6  1  0  0  0  0
  2  8  1  0  0  0  0
  4  1  1  0  0  0  0
  6 10  1  0  0  0  0
  7  2  1  0  0  0  0
  9  6  1  0  0  0  0
  9 12  1  0  0  0  0
 11  6  1  0  0  0  0
 13  9  1  0  0  0  0
 14  9  1  0  0  0  0
M  END
$$$$
