butane_opt
 OpenBabel08242015413D

 14 13  0  0  0  0  0  0  0  0999 V2000
   -3.9717    0.2714   -0.0223 C   0  0  0  0  0  0  0  0  0  0  0  0
   -2.6972   -0.6237    0.0630 C   0  0  0  0  0  0  0  0  0  0  0  0
   -4.7982   -0.2706    0.2330 H   0  0  0  0  0  0  0  0  0  0  0  0
   -4.0359    1.1549   -1.0721 H   0  0  0  0  0  0  0  0  0  0  0  0
   -3.9338    0.7416    0.7454 H   0  0  0  0  0  0  0  0  0  0  0  0
   -1.3918    0.1634    0.0677 C   0  0  0  0  0  0  0  0  0  0  0  0
   -2.6963   -1.2857   -0.7332 H   0  0  0  0  0  0  0  0  0  0  0  0
   -2.7428   -1.2645    0.9512 H   0  0  0  0  0  0  0  0  0  0  0  0
   -0.1589   -0.6833   -0.0152 C   0  0  0  0  0  0  0  0  0  0  0  0
   -1.2276    0.9034    0.9473 H   0  0  0  0  0  0  0  0  0  0  0  0
   -1.4302    0.7620   -0.8165 H   0  0  0  0  0  0  0  0  0  0  0  0
   -0.1712   -1.2145    0.8255 H   0  0  0  0  0  0  0  0  0  0  0  0
    0.8104   -0.0260    0.1633 H   0  0  0  0  0  0  0  0  0  0  0  0
   -0.1749   -1.4859   -0.9422 H   0  0  0  0  0  0  0  0  0  0  0  0
  1  2  1  0  0  0  0
  1  3  1  0  0  0  0
  1  5  1  0  0  0  0
  2  6  1  0  0  0  0
  2  8  1  0  0  0  0
  4  1  1  0  0  0  0
  6 10  1  0  0  0  0
  7  2  1  0  0  0  0
  9  6  1  0  0  0  0
  9 13  1  0  0  0  0
  9 12  1  0  0  0  0
 11  6  1  0  0  0  0
 14  9  1  0  0  0  0
M  END
$$$$
