14
butane_opt
C  -3.920981   0.246607  -0.028648
C  -2.699415  -0.586182   0.092444
H  -4.850651  -0.378569  -0.170717
H  -3.774042   0.731361  -0.838182
H  -4.033445   0.990730   0.891835
C  -1.440250   0.199162   0.055308
H  -2.735470  -1.207440  -0.728847
H  -2.729423  -1.295005   1.039704
C  -0.166914  -0.712085  -0.009359
H  -1.379543   0.834232   0.877006
H  -1.437446   0.919001  -0.848276
H  -0.012786  -1.318377   0.872649
H   0.825434  -0.091593  -0.050579
H  -0.172962  -1.428848  -0.913521
