butane_opt
 OpenBabel08242015413D

 14 13  0  0  0  0  0  0  0  0999 V2000
   -3.9368    0.2488   -0.0172 C   0  0  0  0  0  0  0  0  0  0  0  0
   -2.7314   -0.5921    0.0839 C   0  0  0  0  0  0  0  0  0  0  0  0
   -4.8918   -0.3885   -0.0935 H   0  0  0  0  0  0  0  0  0  0  0  0
   -3.9022    0.7842   -0.8922 H   0  0  0  0  0  0  0  0  0  0  0  0
   -4.0299    1.0354    0.9455 H   0  0  0  0  0  0  0  0  0  0  0  0
   -1.3990    0.1957    0.0321 C   0  0  0  0  0  0  0  0  0  0  0  0
   -2.7409   -1.2199   -0.7148 H   0  0  0  0  0  0  0  0  0  0  0  0
   -2.8264   -1.2010    0.9694 H   0  0  0  0  0  0  0  0  0  0  0  0
   -0.1368   -0.7136    0.0101 C   0  0  0  0  0  0  0  0  0  0  0  0
   -1.3476    0.8231    0.8175 H   0  0  0  0  0  0  0  0  0  0  0  0
   -1.5132    0.8671   -0.8805 H   0  0  0  0  0  0  0  0  0  0  0  0
   -0.0099   -1.2601    0.8656 H   0  0  0  0  0  0  0  0  0  0  0  0
    0.7952   -0.1259   -0.0058 H   0  0  0  0  0  0  0  0  0  0  0  0
   -0.1055   -1.4560   -0.8623 H   0  0  0  0  0  0  0  0  0  0  0  0
  1  2  1  0  0  0  0
  1  5  1  0  0  0  0
  2  8  1  0  0  0  0
  3  1  1  0  0  0  0
  4  1  1  0  0  0  0
  6  2  1  0  0  0  0
  6 10  1  0  0  0  0
  7  2  1  0  0  0  0
  9  6  1  0  0  0  0
  9 12  1  0  0  0  0
 11  6  1  0  0  0  0
 13  9  1  0  0  0  0
 14  9  1  0  0  0  0
M  END
$$$$
