butane_opt
 OpenBabel08242015413D

 14 13  0  0  0  0  0  0  0  0999 V2000
   -3.9262    0.2529    0.0248 C   0  0  0  0  0  0  0  0  0  0  0  0
   -2.7021   -0.5935    0.0307 C   0  0  0  0  0  0  0  0  0  0  0  0
   -4.9106   -0.3938   -0.0702 H   0  0  0  0  0  0  0  0  0  0  0  0
   -3.9088    0.8060   -0.8506 H   0  0  0  0  0  0  0  0  0  0  0  0
   -3.8896    0.9870    0.9594 H   0  0  0  0  0  0  0  0  0  0  0  0
   -1.4253    0.1955    0.0040 C   0  0  0  0  0  0  0  0  0  0  0  0
   -2.6521   -1.3369   -0.8806 H   0  0  0  0  0  0  0  0  0  0  0  0
   -2.6673   -1.2581    0.9593 H   0  0  0  0  0  0  0  0  0  0  0  0
   -0.1731   -0.7036    0.0465 C   0  0  0  0  0  0  0  0  0  0  0  0
   -1.4582    0.8436    0.8565 H   0  0  0  0  0  0  0  0  0  0  0  0
   -1.3841    0.8658   -0.8799 H   0  0  0  0  0  0  0  0  0  0  0  0
    0.0022   -1.3902    0.9578 H   0  0  0  0  0  0  0  0  0  0  0  0
    0.7669   -0.0948   -0.1179 H   0  0  0  0  0  0  0  0  0  0  0  0
   -0.1991   -1.3101   -0.7594 H   0  0  0  0  0  0  0  0  0  0  0  0
  1  2  1  0  0  0  0
  1  5  1  0  0  0  0
  2  8  1  0  0  0  0
  3  1  1  0  0  0  0
  4  1  1  0  0  0  0
  6  2  1  0  0  0  0
  6  9  1  0  0  0  0
  6 10  1  0  0  0  0
  7  2  1  0  0  0  0
  9 12  1  0  0  0  0
 11  6  1  0  0  0  0
 13  9  1  0  0  0  0
 14  9  1  0  0  0  0
M  END
$$$$
