14
butane_opt
C  -3.962588   0.282659  -0.036078
C  -2.711714  -0.636878   0.110849
H  -4.885687  -0.312194  -0.110693
H  -3.900777   0.929659  -0.993274
H  -4.113004   1.007676   0.834270
C  -1.385419   0.159239   0.074890
H  -2.623886  -1.269505  -0.671496
H  -2.725182  -1.290808   1.033510
C  -0.150281  -0.672411  -0.031905
H  -1.348019   0.791854   0.866143
H  -1.304312   0.792463  -0.811386
H  -0.060347  -1.203900   0.826378
H   0.712341  -0.100483   0.030554
H  -0.248412  -1.417038  -0.981655
