14
butane_opt
C  -3.936821   0.248791  -0.017183
C  -2.731443  -0.592137   0.083873
H  -4.891817  -0.388489  -0.093525
H  -3.902188   0.784233  -0.892196
H  -4.029905   1.035447   0.945450
C  -1.398964   0.195694   0.032093
H  -2.740882  -1.219883  -0.714765
H  -2.826397  -1.200961   0.969427
C  -0.136834  -0.713592   0.010058
H  -1.347609   0.823142   0.817533
H  -1.513241   0.867082  -0.880472
H  -0.009898  -1.260095   0.865626
H   0.795231  -0.125855  -0.005814
H  -0.105530  -1.456024  -0.862283
