14
butane_opt
C  -3.923265   0.289716   0.045687
C  -2.690374  -0.621773   0.019458
H  -4.835407  -0.311326  -0.151049
H  -3.894740   0.671990  -0.699513
H  -4.079780   1.176701   1.007292
C  -1.405254   0.138127  -0.041137
H  -2.779460  -1.279217  -0.810131
H  -2.704859  -1.297079   0.964793
C  -0.177443  -0.670818   0.070201
H  -1.363821   0.767530   0.762331
H  -1.393649   0.820621  -0.940920
H  -0.195072  -1.280345   0.961357
H   0.791683  -0.063051  -0.014057
H  -0.217542  -1.297013  -0.743292
