14
butane_opt
C  -3.957714   0.271704  -0.021024
C  -2.714238  -0.623002   0.079173
H  -4.832225  -0.309832   0.018335
H  -3.862389   0.951904  -0.988003
H  -3.983317   0.800966   0.695184
C  -1.408618   0.202714   0.083849
H  -2.641518  -1.292413  -0.764559
H  -2.806501  -1.323106   0.970373
C  -0.154414  -0.697937  -0.017956
H  -1.311267   0.932631   0.967409
H  -1.326551   0.806344  -0.800287
H   0.069026  -1.328930   0.846672
H   0.748771  -0.148418  -0.099341
H  -0.271589  -1.391654  -0.891221
