14
butane_opt
C  -3.922810   0.244207  -0.003429
C  -2.715658  -0.584644   0.061324
H  -4.870424  -0.383625   0.032846
H  -3.852606   0.903647  -0.942968
H  -3.963629   0.868893   0.770020
C  -1.419395   0.200617   0.054044
H  -2.736300  -1.310175  -0.808210
H  -2.749098  -1.154203   0.929643
C  -0.145157  -0.724274   0.006586
H  -1.316124   0.921532   0.950054
H  -1.493761   0.866357  -0.880653
H  -0.142760  -1.361008   0.908662
H   0.788045  -0.132789  -0.104638
H  -0.235976  -1.330951  -0.829052
