butane_opt
 OpenBabel08242015413D

 14 13  0  0  0  0  0  0  0  0999 V2000
   -3.9399    0.2564    0.0041 C   0  0  0  0  0  0  0  0  0  0  0  0
   -2.7062   -0.6122    0.0557 C   0  0  0  0  0  0  0  0  0  0  0  0
   -4.8300   -0.3137    0.1038 H   0  0  0  0  0  0  0  0  0  0  0  0
   -4.0011    0.8954   -0.9149 H   0  0  0  0  0  0  0  0  0  0  0  0
   -3.9374    0.8663    0.8204 H   0  0  0  0  0  0  0  0  0  0  0  0
   -1.4011    0.2051    0.0189 C   0  0  0  0  0  0  0  0  0  0  0  0
   -2.7042   -1.2691   -0.7989 H   0  0  0  0  0  0  0  0  0  0  0  0
   -2.7662   -1.2663    0.9549 H   0  0  0  0  0  0  0  0  0  0  0  0
   -0.1578   -0.7064    0.0272 C   0  0  0  0  0  0  0  0  0  0  0  0
   -1.3983    0.8448    0.8610 H   0  0  0  0  0  0  0  0  0  0  0  0
   -1.4570    0.8488   -0.8930 H   0  0  0  0  0  0  0  0  0  0  0  0
   -0.1454   -1.1940    0.8365 H   0  0  0  0  0  0  0  0  0  0  0  0
    0.7448   -0.0954    0.0929 H   0  0  0  0  0  0  0  0  0  0  0  0
   -0.0715   -1.5013   -0.9068 H   0  0  0  0  0  0  0  0  0  0  0  0
  1  2  1  0  0  0  0
  1  3  1  0  0  0  0
  1  5  1  0  0  0  0
  2  8  1  0  0  0  0
  4  1  1  0  0  0  0
  6  9  1  0  0  0  0
  6  2  1  0  0  0  0
  6 10  1  0  0  0  0
  7  2  1  0  0  0  0
  9 13  1  0  0  0  0
  9 12  1  0  0  0  0
 11  6  1  0  0  0  0
 14  9  1  0  0  0  0
M  END
$$$$
