butane_opt
 OpenBabel08242015413D

 14 13  0  0  0  0  0  0  0  0999 V2000
   -3.9228    0.2442   -0.0034 C   0  0  0  0  0  0  0  0  0  0  0  0
   -2.7157   -0.5846    0.0613 C   0  0  0  0  0  0  0  0  0  0  0  0
   -4.8704   -0.3836    0.0328 H   0  0  0  0  0  0  0  0  0  0  0  0
   -3.8526    0.9036   -0.9430 H   0  0  0  0  0  0  0  0  0  0  0  0
   -3.9636    0.8689    0.7700 H   0  0  0  0  0  0  0  0  0  0  0  0
   -1.4194    0.2006    0.0540 C   0  0  0  0  0  0  0  0  0  0  0  0
   -2.7363   -1.3102   -0.8082 H   0  0  0  0  0  0  0  0  0  0  0  0
   -2.7491   -1.1542    0.9296 H   0  0  0  0  0  0  0  0  0  0  0  0
   -0.1452   -0.7243    0.0066 C   0  0  0  0  0  0  0  0  0  0  0  0
   -1.3161    0.9215    0.9501 H   0  0  0  0  0  0  0  0  0  0  0  0
   -1.4938    0.8664   -0.8807 H   0  0  0  0  0  0  0  0  0  0  0  0
   -0.1428   -1.3610    0.9087 H   0  0  0  0  0  0  0  0  0  0  0  0
    0.7880   -0.1328   -0.1046 H   0  0  0  0  0  0  0  0  0  0  0  0
   -0.2360   -1.3310   -0.8291 H   0  0  0  0  0  0  0  0  0  0  0  0
  1  3  1  0  0  0  0
  1  2  1  0  0  0  0
  1  5  1  0  0  0  0
  2  8  1  0  0  0  0
  4  1  1  0  0  0  0
  6  2  1  0  0  0  0
  6 10  1  0  0  0  0
  7  2  1  0  0  0  0
  9  6  1  0  0  0  0
  9 12  1  0  0  0  0
 11  6  1  0  0  0  0
 13  9  1  0  0  0  0
 14  9  1  0  0  0  0
M  END
$$$$
