14
butane_opt
C  -3.909825   0.251243  -0.029433
C  -2.702716  -0.606332   0.122664
H  -4.877083  -0.376659  -0.207638
H  -3.790921   0.827452  -0.961391
H  -4.011885   0.881060   0.808723
C  -1.427792   0.217239   0.060390
H  -2.623732  -1.238040  -0.680360
H  -2.814574  -1.217131   1.058447
C  -0.176106  -0.710152  -0.038434
H  -1.366473   0.876350   0.925699
H  -1.529937   0.829006  -0.816123
H  -0.089289  -1.277380   0.848840
H   0.725828  -0.106052   0.025861
H  -0.055755  -1.504506  -0.953087
