butane_opt
 OpenBabel08242015413D

 14 13  0  0  0  0  0  0  0  0999 V2000
   -3.9233    0.2897    0.0457 C   0  0  0  0  0  0  0  0  0  0  0  0
   -2.6904   -0.6218    0.0195 C   0  0  0  0  0  0  0  0  0  0  0  0
   -4.8354   -0.3113   -0.1510 H   0  0  0  0  0  0  0  0  0  0  0  0
   -3.8947    0.6720   -0.6995 H   0  0  0  0  0  0  0  0  0  0  0  0
   -4.0798    1.1767    1.0073 H   0  0  0  0  0  0  0  0  0  0  0  0
   -1.4053    0.1381   -0.0411 C   0  0  0  0  0  0  0  0  0  0  0  0
   -2.7795   -1.2792   -0.8101 H   0  0  0  0  0  0  0  0  0  0  0  0
   -2.7049   -1.2971    0.9648 H   0  0  0  0  0  0  0  0  0  0  0  0
   -0.1774   -0.6708    0.0702 C   0  0  0  0  0  0  0  0  0  0  0  0
   -1.3638    0.7675    0.7623 H   0  0  0  0  0  0  0  0  0  0  0  0
   -1.3936    0.8206   -0.9409 H   0  0  0  0  0  0  0  0  0  0  0  0
   -0.1951   -1.2803    0.9614 H   0  0  0  0  0  0  0  0  0  0  0  0
    0.7917   -0.0631   -0.0141 H   0  0  0  0  0  0  0  0  0  0  0  0
   -0.2175   -1.2970   -0.7433 H   0  0  0  0  0  0  0  0  0  0  0  0
  1  5  1  0  0  0  0
  2  1  1  0  0  0  0
  2  8  1  0  0  0  0
  3  1  1  0  0  0  0
  4  1  1  0  0  0  0
  6  2  1  0  0  0  0
  6  9  1  0  0  0  0
  6 10  1  0  0  0  0
  7  2  1  0  0  0  0
  9 12  1  0  0  0  0
 11  6  1  0  0  0  0
 13  9  1  0  0  0  0
 14  9  1  0  0  0  0
M  END
$$$$
