14
butane_opt
C  -3.922648   0.247461   0.036051
C  -2.719812  -0.596766   0.021777
H  -4.829928  -0.337167  -0.053983
H  -3.868600   0.816483  -0.866113
H  -3.920190   0.944720   0.884685
C  -1.406863   0.221232   0.023874
H  -2.790932  -1.401317  -0.936315
H  -2.737456  -1.199671   0.875799
C  -0.150307  -0.715327   0.030295
H  -1.505474   0.888955   0.876779
H  -1.413332   0.851146  -0.843153
H  -0.048502  -1.563603   1.051511
H   0.712183  -0.169623  -0.216178
H  -0.222741  -1.171337  -0.658282
