14
butane_opt
C  -3.963544   0.272346   0.043922
C  -2.686765  -0.637121   0.010228
H  -4.817751  -0.256402   0.048575
H  -3.970163   0.790894  -0.767559
H  -3.993557   1.039284   0.980601
C  -1.407984   0.177298  -0.032929
H  -2.714231  -1.239096  -0.817158
H  -2.668205  -1.359600   0.940514
C  -0.162785  -0.671762   0.063240
H  -1.431598   0.819156   0.814479
H  -1.251163   0.838721  -0.994844
H  -0.189906  -1.290055   0.937346
H   0.698909  -0.061976   0.148875
H  -0.049117  -1.440400  -0.861671
