butane_opt
 OpenBabel08242015413D

 14 13  0  0  0  0  0  0  0  0999 V2000
   -3.9516    0.2589   -0.0117 C   0  0  0  0  0  0  0  0  0  0  0  0
   -2.7118   -0.6071    0.0903 C   0  0  0  0  0  0  0  0  0  0  0  0
   -4.8785   -0.3474   -0.2169 H   0  0  0  0  0  0  0  0  0  0  0  0
   -3.8736    0.8371   -0.8974 H   0  0  0  0  0  0  0  0  0  0  0  0
   -4.0486    1.0561    0.9277 H   0  0  0  0  0  0  0  0  0  0  0  0
   -1.4056    0.1783    0.0440 C   0  0  0  0  0  0  0  0  0  0  0  0
   -2.7821   -1.2780   -0.7681 H   0  0  0  0  0  0  0  0  0  0  0  0
   -2.8021   -1.2492    0.9934 H   0  0  0  0  0  0  0  0  0  0  0  0
   -0.1295   -0.6945   -0.0050 C   0  0  0  0  0  0  0  0  0  0  0  0
   -1.3191    0.8204    0.8683 H   0  0  0  0  0  0  0  0  0  0  0  0
   -1.4701    0.8743   -0.8392 H   0  0  0  0  0  0  0  0  0  0  0  0
   -0.1227   -1.3407    0.8994 H   0  0  0  0  0  0  0  0  0  0  0  0
    0.7994   -0.1450   -0.0582 H   0  0  0  0  0  0  0  0  0  0  0  0
   -0.1390   -1.3312   -0.8715 H   0  0  0  0  0  0  0  0  0  0  0  0
  1  2  1  0  0  0  0
  1  5  1  0  0  0  0
  2  8  1  0  0  0  0
  3  1  1  0  0  0  0
  4  1  1  0  0  0  0
  6  2  1  0  0  0  0
  6 10  1  0  0  0  0
  7  2  1  0  0  0  0
  9  6  1  0  0  0  0
  9 12  1  0  0  0  0
 11  6  1  0  0  0  0
 13  9  1  0  0  0  0
 14  9  1  0  0  0  0
M  END
$$$$
