14
butane_opt
C  -3.949119   0.252500  -0.012926
C  -2.706230  -0.620426   0.088734
H  -4.819265  -0.296606  -0.070290
H  -3.953541   0.871826  -0.892997
H  -3.974947   0.869914   0.837417
C  -1.415037   0.219057   0.018615
H  -2.768195  -1.224791  -0.710572
H  -2.678119  -1.255672   0.995556
C  -0.147219  -0.712061   0.012390
H  -1.388392   0.839731   0.904737
H  -1.397018   0.864605  -0.886678
H  -0.122728  -1.139528   0.780960
H   0.803127  -0.144819   0.134064
H  -0.114925  -1.524992  -0.968273
