butane_opt
 OpenBabel08242015413D

 14 13  0  0  0  0  0  0  0  0999 V2000
   -3.9413    0.2618    0.0371 C   0  0  0  0  0  0  0  0  0  0  0  0
   -2.6995   -0.6101    0.0209 C   0  0  0  0  0  0  0  0  0  0  0  0
   -4.8778   -0.3425    0.0831 H   0  0  0  0  0  0  0  0  0  0  0  0
   -3.9415    0.8334   -0.8391 H   0  0  0  0  0  0  0  0  0  0  0  0
   -3.9479    0.9434    0.9068 H   0  0  0  0  0  0  0  0  0  0  0  0
   -1.4056    0.1906   -0.0160 C   0  0  0  0  0  0  0  0  0  0  0  0
   -2.7137   -1.3027   -0.8267 H   0  0  0  0  0  0  0  0  0  0  0  0
   -2.6807   -1.2273    0.9117 H   0  0  0  0  0  0  0  0  0  0  0  0
   -0.1677   -0.7029    0.0445 C   0  0  0  0  0  0  0  0  0  0  0  0
   -1.4051    0.8677    0.8412 H   0  0  0  0  0  0  0  0  0  0  0  0
   -1.3986    0.8299   -0.9290 H   0  0  0  0  0  0  0  0  0  0  0  0
   -0.2066   -1.3110    0.9307 H   0  0  0  0  0  0  0  0  0  0  0  0
    0.7603   -0.0952    0.1118 H   0  0  0  0  0  0  0  0  0  0  0  0
   -0.0430   -1.3413   -0.7815 H   0  0  0  0  0  0  0  0  0  0  0  0
  1  3  1  0  0  0  0
  1  5  1  0  0  0  0
  2  1  1  0  0  0  0
  2  8  1  0  0  0  0
  4  1  1  0  0  0  0
  6  2  1  0  0  0  0
  6  9  1  0  0  0  0
  6 10  1  0  0  0  0
  7  2  1  0  0  0  0
  9 13  1  0  0  0  0
  9 12  1  0  0  0  0
 11  6  1  0  0  0  0
 14  9  1  0  0  0  0
M  END
$$$$
