butane_opt
 OpenBabel08242015413D

 14 13  0  0  0  0  0  0  0  0999 V2000
   -3.9199    0.2517   -0.0174 C   0  0  0  0  0  0  0  0  0  0  0  0
   -2.7036   -0.5916    0.0789 C   0  0  0  0  0  0  0  0  0  0  0  0
   -4.8336   -0.3950   -0.0096 H   0  0  0  0  0  0  0  0  0  0  0  0
   -3.9630    0.9578   -0.9985 H   0  0  0  0  0  0  0  0  0  0  0  0
   -3.9782    0.8150    0.7589 H   0  0  0  0  0  0  0  0  0  0  0  0
   -1.4355    0.2036    0.0754 C   0  0  0  0  0  0  0  0  0  0  0  0
   -2.7159   -1.3695   -0.8019 H   0  0  0  0  0  0  0  0  0  0  0  0
   -2.7754   -1.2265    0.9473 H   0  0  0  0  0  0  0  0  0  0  0  0
   -0.1484   -0.7054   -0.0238 C   0  0  0  0  0  0  0  0  0  0  0  0
   -1.3645    0.8719    0.9516 H   0  0  0  0  0  0  0  0  0  0  0  0
   -1.4338    0.8029   -0.7631 H   0  0  0  0  0  0  0  0  0  0  0  0
   -0.0460   -1.3757    0.9079 H   0  0  0  0  0  0  0  0  0  0  0  0
    0.7348   -0.1239   -0.1116 H   0  0  0  0  0  0  0  0  0  0  0  0
   -0.1549   -1.3157   -0.8076 H   0  0  0  0  0  0  0  0  0  0  0  0
  1  3  1  0  0  0  0
  1  2  1  0  0  0  0
  1  5  1  0  0  0  0
  2  8  1  0  0  0  0
  4  1  1  0  0  0  0
  6  2  1  0  0  0  0
  6 10  1  0  0  0  0
  7  2  1  0  0  0  0
  9  6  1  0  0  0  0
  9 12  1  0  0  0  0
 11  6  1  0  0  0  0
 13  9  1  0  0  0  0
 14  9  1  0  0  0  0
M  END
$$$$
