14
butane_opt
C  -3.919872   0.251697  -0.017431
C  -2.703565  -0.591624   0.078855
H  -4.833583  -0.395049  -0.009625
H  -3.963022   0.957806  -0.998522
H  -3.978158   0.815030   0.758921
C  -1.435485   0.203565   0.075412
H  -2.715870  -1.369483  -0.801924
H  -2.775357  -1.226474   0.947300
C  -0.148355  -0.705418  -0.023807
H  -1.364509   0.871883   0.951642
H  -1.433755   0.802869  -0.763140
H  -0.046041  -1.375726   0.907931
H   0.734759  -0.123899  -0.111650
H  -0.154908  -1.315656  -0.807630
