butane_opt
 OpenBabel08242015413D

 14 13  0  0  0  0  0  0  0  0999 V2000
   -3.9226    0.2475    0.0361 C   0  0  0  0  0  0  0  0  0  0  0  0
   -2.7198   -0.5968    0.0218 C   0  0  0  0  0  0  0  0  0  0  0  0
   -4.8299   -0.3372   -0.0540 H   0  0  0  0  0  0  0  0  0  0  0  0
   -3.8686    0.8165   -0.8661 H   0  0  0  0  0  0  0  0  0  0  0  0
   -3.9202    0.9447    0.8847 H   0  0  0  0  0  0  0  0  0  0  0  0
   -1.4069    0.2212    0.0239 C   0  0  0  0  0  0  0  0  0  0  0  0
   -2.7909   -1.4013   -0.9363 H   0  0  0  0  0  0  0  0  0  0  0  0
   -2.7375   -1.1997    0.8758 H   0  0  0  0  0  0  0  0  0  0  0  0
   -0.1503   -0.7153    0.0303 C   0  0  0  0  0  0  0  0  0  0  0  0
   -1.5055    0.8890    0.8768 H   0  0  0  0  0  0  0  0  0  0  0  0
   -1.4133    0.8511   -0.8432 H   0  0  0  0  0  0  0  0  0  0  0  0
   -0.0485   -1.5636    1.0515 H   0  0  0  0  0  0  0  0  0  0  0  0
    0.7122   -0.1696   -0.2162 H   0  0  0  0  0  0  0  0  0  0  0  0
   -0.2227   -1.1713   -0.6583 H   0  0  0  0  0  0  0  0  0  0  0  0
  1  5  1  0  0  0  0
  2  6  1  0  0  0  0
  2  1  1  0  0  0  0
  2  8  1  0  0  0  0
  3  1  1  0  0  0  0
  4  1  1  0  0  0  0
  6  9  1  0  0  0  0
  6 10  1  0  0  0  0
  7  2  1  0  0  0  0
  9 12  1  0  0  0  0
 11  6  1  0  0  0  0
 13  9  1  0  0  0  0
 14  9  1  0  0  0  0
M  END
$$$$
