butane_opt
 OpenBabel08242015413D

 14 13  0  0  0  0  0  0  0  0999 V2000
   -3.9325    0.2593    0.0661 C   0  0  0  0  0  0  0  0  0  0  0  0
   -2.6979   -0.5964   -0.0004 C   0  0  0  0  0  0  0  0  0  0  0  0
   -4.9327   -0.4202   -0.0962 H   0  0  0  0  0  0  0  0  0  0  0  0
   -3.9110    0.7499   -0.7573 H   0  0  0  0  0  0  0  0  0  0  0  0
   -3.8832    1.0704    1.0901 H   0  0  0  0  0  0  0  0  0  0  0  0
   -1.4119    0.1857   -0.0434 C   0  0  0  0  0  0  0  0  0  0  0  0
   -2.6895   -1.4171   -0.9044 H   0  0  0  0  0  0  0  0  0  0  0  0
   -2.7355   -1.1684    0.8286 H   0  0  0  0  0  0  0  0  0  0  0  0
   -0.1592   -0.6948    0.0834 C   0  0  0  0  0  0  0  0  0  0  0  0
   -1.4503    0.8217    0.7516 H   0  0  0  0  0  0  0  0  0  0  0  0
   -1.4075    0.9001   -1.0199 H   0  0  0  0  0  0  0  0  0  0  0  0
   -0.1313   -1.4420    1.0825 H   0  0  0  0  0  0  0  0  0  0  0  0
    0.6887   -0.1643   -0.0740 H   0  0  0  0  0  0  0  0  0  0  0  0
   -0.1470   -1.2540   -0.7016 H   0  0  0  0  0  0  0  0  0  0  0  0
  1  5  1  0  0  0  0
  2  1  1  0  0  0  0
  2  8  1  0  0  0  0
  3  1  1  0  0  0  0
  4  1  1  0  0  0  0
  6  2  1  0  0  0  0
  6  9  1  0  0  0  0
  6 10  1  0  0  0  0
  7  2  1  0  0  0  0
  9 12  1  0  0  0  0
 11  6  1  0  0  0  0
 13  9  1  0  0  0  0
 14  9  1  0  0  0  0
M  END
$$$$
