14
butane_opt
C  -3.922078   0.245912  -0.018630
C  -2.720983  -0.610981   0.053179
H  -4.849094  -0.338459   0.000992
H  -4.024429   0.815990  -0.895296
H  -3.947159   0.942085   0.863010
C  -1.412242   0.231385   0.065742
H  -2.717145  -1.280860  -0.824111
H  -2.743709  -1.168617   0.918222
C  -0.147653  -0.723469   0.017243
H  -1.348019   0.878271   0.909473
H  -1.435380   0.844765  -0.800966
H  -0.002135  -1.515913   0.986047
H   0.748136  -0.092072  -0.303759
H  -0.252870  -1.279624  -0.811259
