14
butane_opt
C  -3.914237   0.253265  -0.042367
C  -2.697121  -0.597697   0.098010
H  -4.868736  -0.384053  -0.090624
H  -3.914366   0.879372  -0.977768
H  -3.998720   0.856091   0.753433
C  -1.414926   0.205862   0.094502
H  -2.668252  -1.225321  -0.692734
H  -2.743507  -1.233886   1.017803
C  -0.183786  -0.707165  -0.040969
H  -1.316925   0.950803   0.976155
H  -1.385044   0.727152  -0.697316
H  -0.063512  -1.452933   0.891474
H   0.670041  -0.126169  -0.193245
H  -0.196038  -1.327305  -0.864731
