butane_opt
 OpenBabel08242015413D

 14 13  0  0  0  0  0  0  0  0999 V2000
   -3.9602    0.2829    0.0835 C   0  0  0  0  0  0  0  0  0  0  0  0
   -2.7135   -0.6208    0.0003 C   0  0  0  0  0  0  0  0  0  0  0  0
   -4.8672   -0.3244    0.0103 H   0  0  0  0  0  0  0  0  0  0  0  0
   -4.0460    0.7607   -0.7407 H   0  0  0  0  0  0  0  0  0  0  0  0
   -3.9429    0.9415    0.9739 H   0  0  0  0  0  0  0  0  0  0  0  0
   -1.4029    0.1754   -0.0668 C   0  0  0  0  0  0  0  0  0  0  0  0
   -2.6984   -1.3624   -0.8830 H   0  0  0  0  0  0  0  0  0  0  0  0
   -2.6304   -1.1938    0.8246 H   0  0  0  0  0  0  0  0  0  0  0  0
   -0.1442   -0.6853    0.0845 C   0  0  0  0  0  0  0  0  0  0  0  0
   -1.4093    0.7483    0.6475 H   0  0  0  0  0  0  0  0  0  0  0  0
   -1.3148    0.8752   -1.0446 H   0  0  0  0  0  0  0  0  0  0  0  0
   -0.3114   -1.2564    0.9610 H   0  0  0  0  0  0  0  0  0  0  0  0
    0.7843   -0.0837    0.2764 H   0  0  0  0  0  0  0  0  0  0  0  0
    0.0569   -1.4043   -0.8032 H   0  0  0  0  0  0  0  0  0  0  0  0
  1  5  1  0  0  0  0
  2  1  1  0  0  0  0
  2  8  1  0  0  0  0
  3  1  1  0  0  0  0
  4  1  1  0  0  0  0
  6  2  1  0  0  0  0
  6  9  1  0  0  0  0
  6 10  1  0  0  0  0
  7  2  1  0  0  0  0
  9 13  1  0  0  0  0
  9 12  1  0  0  0  0
 11  6  1  0  0  0  0
 14  9  1  0  0  0  0
M  END
$$$$
