14
butane_opt
C  -3.963164   0.265839   0.045031
C  -2.706709  -0.644595  -0.006255
H  -4.799555  -0.253034  -0.033773
H  -3.951068   0.799603  -0.772149
H  -4.074090   1.103235   1.026938
C  -1.386235   0.205502  -0.001936
H  -2.760322  -1.338032  -0.891515
H  -2.671159  -1.249628   0.837625
C  -0.151935  -0.697515   0.073573
H  -1.396704   0.791977   0.745675
H  -1.365398   0.873514  -0.899039
H  -0.021339  -1.478780   1.047884
H   0.766899  -0.039731  -0.207416
H  -0.255441  -1.220500  -0.704478
