14
butane_opt
C  -3.920783   0.246502  -0.010102
C  -2.692095  -0.592828   0.076340
H  -4.830243  -0.360000  -0.115290
H  -3.834845   0.818163  -0.867666
H  -4.093589   1.001510   0.902409
C  -1.410818   0.196939   0.014517
H  -2.719292  -1.242339  -0.709896
H  -2.751798  -1.322574   1.020759
C  -0.176985  -0.702165   0.011965
H  -1.428739   0.944372   0.945580
H  -1.496770   0.749716  -0.785671
H  -0.079647  -1.362245   0.881708
H   0.786971  -0.068604  -0.075035
H  -0.170627  -1.400099  -0.862586
