butane_opt
 OpenBabel08242015413D

 14 13  0  0  0  0  0  0  0  0999 V2000
   -3.9267    0.2889    0.0581 C   0  0  0  0  0  0  0  0  0  0  0  0
   -2.6908   -0.6397   -0.0265 C   0  0  0  0  0  0  0  0  0  0  0  0
   -4.8296   -0.2974    0.3175 H   0  0  0  0  0  0  0  0  0  0  0  0
   -4.0835    0.9546   -0.8329 H   0  0  0  0  0  0  0  0  0  0  0  0
   -3.8315    0.8617    0.8941 H   0  0  0  0  0  0  0  0  0  0  0  0
   -1.4051    0.1697   -0.0241 C   0  0  0  0  0  0  0  0  0  0  0  0
   -2.7604   -1.4276   -0.9590 H   0  0  0  0  0  0  0  0  0  0  0  0
   -2.7188   -1.1481    0.7864 H   0  0  0  0  0  0  0  0  0  0  0  0
   -0.1786   -0.6782    0.0822 C   0  0  0  0  0  0  0  0  0  0  0  0
   -1.4665    0.8312    0.7520 H   0  0  0  0  0  0  0  0  0  0  0  0
   -1.3140    0.8204   -0.9292 H   0  0  0  0  0  0  0  0  0  0  0  0
   -0.2075   -1.3723    1.0573 H   0  0  0  0  0  0  0  0  0  0  0  0
    0.7763   -0.0729    0.0434 H   0  0  0  0  0  0  0  0  0  0  0  0
   -0.1861   -1.2991   -0.7620 H   0  0  0  0  0  0  0  0  0  0  0  0
  1  3  1  0  0  0  0
  1  5  1  0  0  0  0
  2  6  1  0  0  0  0
  2  1  1  0  0  0  0
  2  8  1  0  0  0  0
  4  1  1  0  0  0  0
  6  9  1  0  0  0  0
  6 10  1  0  0  0  0
  7  2  1  0  0  0  0
  9 12  1  0  0  0  0
 11  6  1  0  0  0  0
 13  9  1  0  0  0  0
 14  9  1  0  0  0  0
M  END
$$$$
