14
butane_opt
C  -3.909580   0.242637   0.092196
C  -2.702245  -0.590831  -0.027169
H  -4.846767  -0.337967   0.162339
H  -4.040480   0.929595  -0.852429
H  -3.831391   0.815135   0.876880
C  -1.428892   0.205794  -0.069180
H  -2.819814  -1.335481  -0.926991
H  -2.711410  -1.177801   0.825889
C  -0.151626  -0.707610   0.096664
H  -1.485005   0.921963   0.751485
H  -1.363411   0.770464  -0.919750
H  -0.222333  -1.301955   0.979402
H   0.669253  -0.179517   0.150259
H  -0.048809  -1.386223  -0.734442
