butane_opt
 OpenBabel08242015413D

 14 13  0  0  0  0  0  0  0  0999 V2000
   -3.9386    0.2452    0.0591 C   0  0  0  0  0  0  0  0  0  0  0  0
   -2.7132   -0.5975    0.0320 C   0  0  0  0  0  0  0  0  0  0  0  0
   -4.9274   -0.4122   -0.1536 H   0  0  0  0  0  0  0  0  0  0  0  0
   -3.9289    0.7826   -0.7938 H   0  0  0  0  0  0  0  0  0  0  0  0
   -4.0227    1.0697    0.9697 H   0  0  0  0  0  0  0  0  0  0  0  0
   -1.4289    0.2039   -0.0455 C   0  0  0  0  0  0  0  0  0  0  0  0
   -2.7509   -1.3425   -0.8725 H   0  0  0  0  0  0  0  0  0  0  0  0
   -2.7276   -1.1884    0.9126 H   0  0  0  0  0  0  0  0  0  0  0  0
   -0.1202   -0.7171    0.0680 C   0  0  0  0  0  0  0  0  0  0  0  0
   -1.4412    0.8681    0.7731 H   0  0  0  0  0  0  0  0  0  0  0  0
   -1.3630    0.9078   -0.9705 H   0  0  0  0  0  0  0  0  0  0  0  0
   -0.1146   -1.3106    0.9548 H   0  0  0  0  0  0  0  0  0  0  0  0
    0.8113   -0.1244    0.0341 H   0  0  0  0  0  0  0  0  0  0  0  0
   -0.1253   -1.3542   -0.7668 H   0  0  0  0  0  0  0  0  0  0  0  0
  1  5  1  0  0  0  0
  2  1  1  0  0  0  0
  2  8  1  0  0  0  0
  3  1  1  0  0  0  0
  4  1  1  0  0  0  0
  6  2  1  0  0  0  0
  6  9  1  0  0  0  0
  6 10  1  0  0  0  0
  7  2  1  0  0  0  0
  9 12  1  0  0  0  0
 11  6  1  0  0  0  0
 13  9  1  0  0  0  0
 14  9  1  0  0  0  0
M  END
$$$$
