14
butane_opt
C  -3.959930   0.266683  -0.013339
C  -2.705253  -0.619917   0.079439
H  -4.895691  -0.334085  -0.101009
H  -3.889878   0.843341  -0.895358
H  -4.020046   0.989857   0.876155
C  -1.402405   0.184369   0.038547
H  -2.660733  -1.221035  -0.727711
H  -2.782628  -1.319490   1.016215
C  -0.148106  -0.695823  -0.000699
H  -1.329406   0.912358   0.916610
H  -1.384333   0.823288  -0.840636
H  -0.111663  -1.276655   0.895276
H   0.776532  -0.109880  -0.050186
H  -0.137726  -1.412345  -0.897104
