butane_opt
 OpenBabel08242015413D

 14 13  0  0  0  0  0  0  0  0999 V2000
   -3.9142    0.2533   -0.0424 C   0  0  0  0  0  0  0  0  0  0  0  0
   -2.6971   -0.5977    0.0980 C   0  0  0  0  0  0  0  0  0  0  0  0
   -4.8687   -0.3841   -0.0906 H   0  0  0  0  0  0  0  0  0  0  0  0
   -3.9144    0.8794   -0.9778 H   0  0  0  0  0  0  0  0  0  0  0  0
   -3.9987    0.8561    0.7534 H   0  0  0  0  0  0  0  0  0  0  0  0
   -1.4149    0.2059    0.0945 C   0  0  0  0  0  0  0  0  0  0  0  0
   -2.6683   -1.2253   -0.6927 H   0  0  0  0  0  0  0  0  0  0  0  0
   -2.7435   -1.2339    1.0178 H   0  0  0  0  0  0  0  0  0  0  0  0
   -0.1838   -0.7072   -0.0410 C   0  0  0  0  0  0  0  0  0  0  0  0
   -1.3169    0.9508    0.9762 H   0  0  0  0  0  0  0  0  0  0  0  0
   -1.3850    0.7272   -0.6973 H   0  0  0  0  0  0  0  0  0  0  0  0
   -0.0635   -1.4529    0.8915 H   0  0  0  0  0  0  0  0  0  0  0  0
    0.6700   -0.1262   -0.1932 H   0  0  0  0  0  0  0  0  0  0  0  0
   -0.1960   -1.3273   -0.8647 H   0  0  0  0  0  0  0  0  0  0  0  0
  1  2  1  0  0  0  0
  1  5  1  0  0  0  0
  2  8  1  0  0  0  0
  3  1  1  0  0  0  0
  4  1  1  0  0  0  0
  6  2  1  0  0  0  0
  6 10  1  0  0  0  0
  7  2  1  0  0  0  0
  9  6  1  0  0  0  0
  9 12  1  0  0  0  0
 11  6  1  0  0  0  0
 13  9  1  0  0  0  0
 14  9  1  0  0  0  0
M  END
$$$$
