14
butane_opt
C  -3.951269   0.264409   0.038934
C  -2.692816  -0.620973   0.037683
H  -4.819982  -0.299907  -0.126306
H  -3.929183   0.782839  -0.765990
H  -4.024335   1.033160   0.958638
C  -1.406578   0.180851  -0.020664
H  -2.760963  -1.364227  -0.841926
H  -2.697827  -1.207655   0.892772
C  -0.157792  -0.683715   0.049143
H  -1.428564   0.848469   0.812212
H  -1.360150   0.859846  -0.948021
H  -0.136135  -1.380577   0.997919
H   0.750134  -0.118139  -0.016639
H  -0.123213  -1.310380  -0.774795
