butane_opt
 OpenBabel08242015413D

 14 13  0  0  0  0  0  0  0  0999 V2000
   -3.9466    0.2799    0.0783 C   0  0  0  0  0  0  0  0  0  0  0  0
   -2.6858   -0.6359   -0.0435 C   0  0  0  0  0  0  0  0  0  0  0  0
   -4.8412   -0.2910    0.2034 H   0  0  0  0  0  0  0  0  0  0  0  0
   -4.0888    0.9448   -0.8174 H   0  0  0  0  0  0  0  0  0  0  0  0
   -3.7833    0.8938    0.9498 H   0  0  0  0  0  0  0  0  0  0  0  0
   -1.4053    0.1513   -0.0394 C   0  0  0  0  0  0  0  0  0  0  0  0
   -2.6850   -1.3588   -0.9104 H   0  0  0  0  0  0  0  0  0  0  0  0
   -2.6779   -1.1517    0.8025 H   0  0  0  0  0  0  0  0  0  0  0  0
   -0.1632   -0.6799    0.0942 C   0  0  0  0  0  0  0  0  0  0  0  0
   -1.5202    0.7842    0.7485 H   0  0  0  0  0  0  0  0  0  0  0  0
   -1.3913    0.9091   -0.9754 H   0  0  0  0  0  0  0  0  0  0  0  0
   -0.2447   -1.2758    1.0140 H   0  0  0  0  0  0  0  0  0  0  0  0
    0.7835   -0.0296    0.0975 H   0  0  0  0  0  0  0  0  0  0  0  0
   -0.1745   -1.2792   -0.7540 H   0  0  0  0  0  0  0  0  0  0  0  0
  1  3  1  0  0  0  0
  1  5  1  0  0  0  0
  2  6  1  0  0  0  0
  2  1  1  0  0  0  0
  2  8  1  0  0  0  0
  4  1  1  0  0  0  0
  6  9  1  0  0  0  0
  6 10  1  0  0  0  0
  7  2  1  0  0  0  0
  9 13  1  0  0  0  0
  9 12  1  0  0  0  0
 11  6  1  0  0  0  0
 14  9  1  0  0  0  0
M  END
$$$$
