butane_opt
 OpenBabel08242015413D

 14 13  0  0  0  0  0  0  0  0999 V2000
   -3.9628    0.2930   -0.0065 C   0  0  0  0  0  0  0  0  0  0  0  0
   -2.6900   -0.6464    0.0738 C   0  0  0  0  0  0  0  0  0  0  0  0
   -4.9249   -0.3083    0.1370 H   0  0  0  0  0  0  0  0  0  0  0  0
   -4.0282    0.9864   -0.9769 H   0  0  0  0  0  0  0  0  0  0  0  0
   -3.9975    0.8373    0.7881 H   0  0  0  0  0  0  0  0  0  0  0  0
   -1.4055    0.1603    0.0121 C   0  0  0  0  0  0  0  0  0  0  0  0
   -2.5941   -1.2651   -0.7146 H   0  0  0  0  0  0  0  0  0  0  0  0
   -2.7288   -1.2841    0.9607 H   0  0  0  0  0  0  0  0  0  0  0  0
   -0.1532   -0.6756    0.0054 C   0  0  0  0  0  0  0  0  0  0  0  0
   -1.2934    0.9231    0.9292 H   0  0  0  0  0  0  0  0  0  0  0  0
   -1.3830    0.7037   -0.7830 H   0  0  0  0  0  0  0  0  0  0  0  0
   -0.2185   -1.1934    0.8206 H   0  0  0  0  0  0  0  0  0  0  0  0
    0.8000   -0.0168    0.2075 H   0  0  0  0  0  0  0  0  0  0  0  0
   -0.1200   -1.4319   -0.9559 H   0  0  0  0  0  0  0  0  0  0  0  0
  1  2  1  0  0  0  0
  1  3  1  0  0  0  0
  1  5  1  0  0  0  0
  2  8  1  0  0  0  0
  4  1  1  0  0  0  0
  6  2  1  0  0  0  0
  6 10  1  0  0  0  0
  7  2  1  0  0  0  0
  9  6  1  0  0  0  0
  9 13  1  0  0  0  0
  9 12  1  0  0  0  0
 11  6  1  0  0  0  0
 14  9  1  0  0  0  0
M  END
$$$$
