14
butane_opt
C  -3.946619   0.279898   0.078324
C  -2.685775  -0.635894  -0.043466
H  -4.841200  -0.291048   0.203404
H  -4.088824   0.944778  -0.817429
H  -3.783323   0.893810   0.949751
C  -1.405316   0.151263  -0.039350
H  -2.684996  -1.358846  -0.910392
H  -2.677858  -1.151698   0.802475
C  -0.163215  -0.679934   0.094167
H  -1.520233   0.784222   0.748460
H  -1.391336   0.909089  -0.975401
H  -0.244689  -1.275800   1.013961
H   0.783521  -0.029564   0.097475
H  -0.174542  -1.279174  -0.754039
