butane_opt
 OpenBabel08242015413D

 14 13  0  0  0  0  0  0  0  0999 V2000
   -3.9256    0.2616    0.0595 C   0  0  0  0  0  0  0  0  0  0  0  0
   -2.7042   -0.5922   -0.0207 C   0  0  0  0  0  0  0  0  0  0  0  0
   -4.9325   -0.4450    0.1095 H   0  0  0  0  0  0  0  0  0  0  0  0
   -3.9305    0.8339   -0.7991 H   0  0  0  0  0  0  0  0  0  0  0  0
   -3.8334    0.8928    0.9244 H   0  0  0  0  0  0  0  0  0  0  0  0
   -1.4116    0.1918   -0.0146 C   0  0  0  0  0  0  0  0  0  0  0  0
   -2.7993   -1.2671   -0.9037 H   0  0  0  0  0  0  0  0  0  0  0  0
   -2.6334   -1.1911    0.8280 H   0  0  0  0  0  0  0  0  0  0  0  0
   -0.1716   -0.7159    0.0812 C   0  0  0  0  0  0  0  0  0  0  0  0
   -1.4728    0.8181    0.8122 H   0  0  0  0  0  0  0  0  0  0  0  0
   -1.3528    0.9320   -1.0117 H   0  0  0  0  0  0  0  0  0  0  0  0
   -0.1304   -1.3350    0.9953 H   0  0  0  0  0  0  0  0  0  0  0  0
    0.7278   -0.0820   -0.0452 H   0  0  0  0  0  0  0  0  0  0  0  0
   -0.1098   -1.3842   -0.7467 H   0  0  0  0  0  0  0  0  0  0  0  0
  1  3  1  0  0  0  0
  1  5  1  0  0  0  0
  2  6  1  0  0  0  0
  2  1  1  0  0  0  0
  2  8  1  0  0  0  0
  4  1  1  0  0  0  0
  6  9  1  0  0  0  0
  6 10  1  0  0  0  0
  7  2  1  0  0  0  0
  9 12  1  0  0  0  0
 11  6  1  0  0  0  0
 13  9  1  0  0  0  0
 14  9  1  0  0  0  0
M  END
$$$$
