butane_opt
 OpenBabel08242015413D

 14 13  0  0  0  0  0  0  0  0999 V2000
   -3.9368    0.2811    0.0604 C   0  0  0  0  0  0  0  0  0  0  0  0
   -2.6849   -0.6330   -0.0223 C   0  0  0  0  0  0  0  0  0  0  0  0
   -4.9007   -0.3494    0.0785 H   0  0  0  0  0  0  0  0  0  0  0  0
   -4.0433    0.8426   -0.8123 H   0  0  0  0  0  0  0  0  0  0  0  0
   -3.9886    1.0468    0.9605 H   0  0  0  0  0  0  0  0  0  0  0  0
   -1.3931    0.1631   -0.0038 C   0  0  0  0  0  0  0  0  0  0  0  0
   -2.6458   -1.3614   -0.9285 H   0  0  0  0  0  0  0  0  0  0  0  0
   -2.7515   -1.1591    0.8251 H   0  0  0  0  0  0  0  0  0  0  0  0
   -0.1693   -0.6808    0.0729 C   0  0  0  0  0  0  0  0  0  0  0  0
   -1.4600    0.7530    0.7893 H   0  0  0  0  0  0  0  0  0  0  0  0
   -1.3990    0.8723   -0.9382 H   0  0  0  0  0  0  0  0  0  0  0  0
   -0.1780   -1.4631    1.0397 H   0  0  0  0  0  0  0  0  0  0  0  0
    0.8105   -0.0152   -0.1653 H   0  0  0  0  0  0  0  0  0  0  0  0
   -0.2501   -1.1984   -0.6645 H   0  0  0  0  0  0  0  0  0  0  0  0
  1  3  1  0  0  0  0
  1  5  1  0  0  0  0
  2  6  1  0  0  0  0
  2  1  1  0  0  0  0
  2  8  1  0  0  0  0
  4  1  1  0  0  0  0
  6  9  1  0  0  0  0
  6 10  1  0  0  0  0
  7  2  1  0  0  0  0
  9 12  1  0  0  0  0
 11  6  1  0  0  0  0
 13  9  1  0  0  0  0
 14  9  1  0  0  0  0
M  END
$$$$
