14
butane_opt
C  -3.962784   0.292964  -0.006477
C  -2.690046  -0.646427   0.073815
H  -4.924899  -0.308284   0.137044
H  -4.028182   0.986427  -0.976866
H  -3.997527   0.837257   0.788096
C  -1.405545   0.160274   0.012143
H  -2.594069  -1.265063  -0.714649
H  -2.728799  -1.284120   0.960714
C  -0.153185  -0.675647   0.005441
H  -1.293360   0.923138   0.929226
H  -1.382962   0.703656  -0.782962
H  -0.218549  -1.193432   0.820618
H   0.799951  -0.016822   0.207520
H  -0.119973  -1.431939  -0.955945
