14
butane_opt
C  -3.935848   0.248846  -0.019337
C  -2.711657  -0.591183   0.070708
H  -4.897092  -0.400929   0.126484
H  -3.893004   0.969322  -0.949064
H  -3.848076   0.845368   0.790222
C  -1.401820   0.199810   0.043820
H  -2.665486  -1.238200  -0.725796
H  -2.720698  -1.282321   1.060220
C  -0.167683  -0.717149   0.006114
H  -1.367215   0.835142   0.846347
H  -1.458168   0.914235  -0.878732
H  -0.211554  -1.065109   0.709524
H   0.722629  -0.158926   0.187559
H  -0.066852  -1.590603  -0.976201
