butane_opt
 OpenBabel08242015413D

 14 13  0  0  0  0  0  0  0  0999 V2000
   -3.9501    0.2602    0.0553 C   0  0  0  0  0  0  0  0  0  0  0  0
   -2.7230   -0.5998    0.0216 C   0  0  0  0  0  0  0  0  0  0  0  0
   -4.8507   -0.3124   -0.1359 H   0  0  0  0  0  0  0  0  0  0  0  0
   -3.8103    0.6596   -0.7600 H   0  0  0  0  0  0  0  0  0  0  0  0
   -4.0056    1.0502    1.0040 H   0  0  0  0  0  0  0  0  0  0  0  0
   -1.4012    0.1889   -0.0431 C   0  0  0  0  0  0  0  0  0  0  0  0
   -2.8158   -1.2306   -0.8386 H   0  0  0  0  0  0  0  0  0  0  0  0
   -2.7123   -1.2791    0.9039 H   0  0  0  0  0  0  0  0  0  0  0  0
   -0.1355   -0.7026    0.0583 C   0  0  0  0  0  0  0  0  0  0  0  0
   -1.4248    0.8908    0.8048 H   0  0  0  0  0  0  0  0  0  0  0  0
   -1.4678    0.8521   -0.9345 H   0  0  0  0  0  0  0  0  0  0  0  0
   -0.1448   -1.4196    1.0113 H   0  0  0  0  0  0  0  0  0  0  0  0
    0.8034   -0.1119    0.0667 H   0  0  0  0  0  0  0  0  0  0  0  0
   -0.0919   -1.3292   -0.7542 H   0  0  0  0  0  0  0  0  0  0  0  0
  1  5  1  0  0  0  0
  2  1  1  0  0  0  0
  2  8  1  0  0  0  0
  3  1  1  0  0  0  0
  4  1  1  0  0  0  0
  6  2  1  0  0  0  0
  6  9  1  0  0  0  0
  6 10  1  0  0  0  0
  7  2  1  0  0  0  0
  9 13  1  0  0  0  0
  9 12  1  0  0  0  0
 11  6  1  0  0  0  0
 14  9  1  0  0  0  0
M  END
$$$$
