14
butane_opt
C  -3.931629   0.276453  -0.037970
C  -2.691507  -0.630102   0.078040
H  -4.827170  -0.332964  -0.078305
H  -3.948518   0.903724  -0.936399
H  -3.965158   0.907917   0.775078
C  -1.420908   0.175053   0.101489
H  -2.592077  -1.319350  -0.742579
H  -2.685279  -1.262626   0.999375
C  -0.187585  -0.676422  -0.028146
H  -1.327483   0.871602   0.945135
H  -1.438617   0.799638  -0.744482
H   0.029063  -1.438973   0.947610
H   0.786137  -0.053892  -0.246059
H  -0.289369  -1.274654  -0.835724
