14
butane_opt
C  -3.932507   0.239061  -0.027093
C  -2.696097  -0.595110   0.085023
H  -4.852806  -0.334127   0.021359
H  -3.884026   0.924127  -0.980629
H  -3.882015   0.762380   0.723041
C  -1.422813   0.219415   0.073036
H  -2.682245  -1.317065  -0.816064
H  -2.653595  -1.155943   0.939303
C  -0.174975  -0.716184  -0.018189
H  -1.348763   0.947899   0.972092
H  -1.460669   0.806073  -0.740783
H  -0.014700  -1.385493   0.936812
H   0.703818  -0.171557  -0.150078
H  -0.224103  -1.323596  -0.829381
