butane_opt
 OpenBabel08242015413D

 14 13  0  0  0  0  0  0  0  0999 V2000
   -3.9325    0.2391   -0.0271 C   0  0  0  0  0  0  0  0  0  0  0  0
   -2.6961   -0.5951    0.0850 C   0  0  0  0  0  0  0  0  0  0  0  0
   -4.8528   -0.3341    0.0214 H   0  0  0  0  0  0  0  0  0  0  0  0
   -3.8840    0.9241   -0.9806 H   0  0  0  0  0  0  0  0  0  0  0  0
   -3.8820    0.7624    0.7230 H   0  0  0  0  0  0  0  0  0  0  0  0
   -1.4228    0.2194    0.0730 C   0  0  0  0  0  0  0  0  0  0  0  0
   -2.6822   -1.3171   -0.8161 H   0  0  0  0  0  0  0  0  0  0  0  0
   -2.6536   -1.1559    0.9393 H   0  0  0  0  0  0  0  0  0  0  0  0
   -0.1750   -0.7162   -0.0182 C   0  0  0  0  0  0  0  0  0  0  0  0
   -1.3488    0.9479    0.9721 H   0  0  0  0  0  0  0  0  0  0  0  0
   -1.4607    0.8061   -0.7408 H   0  0  0  0  0  0  0  0  0  0  0  0
   -0.0147   -1.3855    0.9368 H   0  0  0  0  0  0  0  0  0  0  0  0
    0.7038   -0.1716   -0.1501 H   0  0  0  0  0  0  0  0  0  0  0  0
   -0.2241   -1.3236   -0.8294 H   0  0  0  0  0  0  0  0  0  0  0  0
  1  3  1  0  0  0  0
  1  2  1  0  0  0  0
  1  5  1  0  0  0  0
  2  8  1  0  0  0  0
  4  1  1  0  0  0  0
  6  2  1  0  0  0  0
  6 10  1  0  0  0  0
  7  2  1  0  0  0  0
  9  6  1  0  0  0  0
  9 12  1  0  0  0  0
 11  6  1  0  0  0  0
 13  9  1  0  0  0  0
 14  9  1  0  0  0  0
M  END
$$$$
