14
butane_opt
C  -3.934757   0.263789  -0.012161
C  -2.697112  -0.615785   0.084518
H  -4.872785  -0.347643  -0.119069
H  -3.907634   0.821042  -0.886998
H  -4.016636   0.945744   0.830791
C  -1.399301   0.199624   0.033726
H  -2.697944  -1.242572  -0.749147
H  -2.714074  -1.311399   1.010583
C  -0.170828  -0.698508  -0.000224
H  -1.363186   0.922566   0.932585
H  -1.446230   0.792552  -0.828493
H  -0.109956  -1.321108   0.891015
H   0.716966  -0.117436  -0.029233
H  -0.182673  -1.412078  -0.883955
