14
butane_opt
C  -3.936883   0.257225   0.040546
C  -2.708807  -0.599887   0.039985
H  -4.932868  -0.402611  -0.107154
H  -3.763399   0.685003  -0.730201
H  -3.990147   1.081669   0.984768
C  -1.417605   0.208100  -0.030972
H  -2.728704  -1.332566  -0.862155
H  -2.702391  -1.113415   0.855826
C  -0.170257  -0.717114   0.060043
H  -1.396668   0.793317   0.801979
H  -1.323963   0.868824  -0.962099
H  -0.084254  -1.452848   1.018619
H   0.788607  -0.098764  -0.051823
H  -0.094687  -1.289455  -0.790421
