butane_opt
 OpenBabel08242015413D

 14 13  0  0  0  0  0  0  0  0999 V2000
   -3.9369    0.2572    0.0405 C   0  0  0  0  0  0  0  0  0  0  0  0
   -2.7088   -0.5999    0.0400 C   0  0  0  0  0  0  0  0  0  0  0  0
   -4.9329   -0.4026   -0.1072 H   0  0  0  0  0  0  0  0  0  0  0  0
   -3.7634    0.6850   -0.7302 H   0  0  0  0  0  0  0  0  0  0  0  0
   -3.9901    1.0817    0.9848 H   0  0  0  0  0  0  0  0  0  0  0  0
   -1.4176    0.2081   -0.0310 C   0  0  0  0  0  0  0  0  0  0  0  0
   -2.7287   -1.3326   -0.8622 H   0  0  0  0  0  0  0  0  0  0  0  0
   -2.7024   -1.1134    0.8558 H   0  0  0  0  0  0  0  0  0  0  0  0
   -0.1703   -0.7171    0.0600 C   0  0  0  0  0  0  0  0  0  0  0  0
   -1.3967    0.7933    0.8020 H   0  0  0  0  0  0  0  0  0  0  0  0
   -1.3240    0.8688   -0.9621 H   0  0  0  0  0  0  0  0  0  0  0  0
   -0.0843   -1.4528    1.0186 H   0  0  0  0  0  0  0  0  0  0  0  0
    0.7886   -0.0988   -0.0518 H   0  0  0  0  0  0  0  0  0  0  0  0
   -0.0947   -1.2895   -0.7904 H   0  0  0  0  0  0  0  0  0  0  0  0
  1  5  1  0  0  0  0
  2  1  1  0  0  0  0
  2  8  1  0  0  0  0
  3  1  1  0  0  0  0
  4  1  1  0  0  0  0
  6  2  1  0  0  0  0
  6  9  1  0  0  0  0
  6 10  1  0  0  0  0
  7  2  1  0  0  0  0
  9 12  1  0  0  0  0
 11  6  1  0  0  0  0
 13  9  1  0  0  0  0
 14  9  1  0  0  0  0
M  END
$$$$
