14
butane_opt
C  -3.946460   0.288003  -0.045521
C  -2.686544  -0.621514   0.103849
H  -4.900088  -0.315083  -0.090979
H  -3.829069   0.805509  -0.862696
H  -4.047557   1.004926   0.860437
C  -1.391429   0.151120   0.075200
H  -2.679229  -1.258318  -0.726623
H  -2.745237  -1.286547   1.068488
C  -0.184230  -0.675985  -0.025289
H  -1.332975   0.734086   0.853919
H  -1.438795   0.810203  -0.850698
H  -0.112371  -1.238324   0.811139
H   0.744153  -0.023440  -0.009223
H  -0.193058  -1.401385  -0.903966
