butane_opt
 OpenBabel08242015413D

 14 13  0  0  0  0  0  0  0  0999 V2000
   -3.9492    0.2891    0.0512 C   0  0  0  0  0  0  0  0  0  0  0  0
   -2.7109   -0.6413    0.0076 C   0  0  0  0  0  0  0  0  0  0  0  0
   -4.8537   -0.2766   -0.0476 H   0  0  0  0  0  0  0  0  0  0  0  0
   -4.0136    0.8280   -0.7612 H   0  0  0  0  0  0  0  0  0  0  0  0
   -3.9777    1.0008    0.9359 H   0  0  0  0  0  0  0  0  0  0  0  0
   -1.3859    0.1723   -0.0211 C   0  0  0  0  0  0  0  0  0  0  0  0
   -2.7256   -1.4077   -0.8828 H   0  0  0  0  0  0  0  0  0  0  0  0
   -2.7286   -1.2050    0.8714 H   0  0  0  0  0  0  0  0  0  0  0  0
   -0.1625   -0.6827    0.0773 C   0  0  0  0  0  0  0  0  0  0  0  0
   -1.4307    0.7938    0.8173 H   0  0  0  0  0  0  0  0  0  0  0  0
   -1.3450    0.8701   -0.9904 H   0  0  0  0  0  0  0  0  0  0  0  0
   -0.0582   -1.3828    0.9820 H   0  0  0  0  0  0  0  0  0  0  0  0
    0.7966   -0.0105   -0.0948 H   0  0  0  0  0  0  0  0  0  0  0  0
   -0.2080   -1.3158   -0.7604 H   0  0  0  0  0  0  0  0  0  0  0  0
  1  5  1  0  0  0  0
  2  1  1  0  0  0  0
  2  8  1  0  0  0  0
  3  1  1  0  0  0  0
  4  1  1  0  0  0  0
  6  2  1  0  0  0  0
  6  9  1  0  0  0  0
  6 10  1  0  0  0  0
  7  2  1  0  0  0  0
  9 12  1  0  0  0  0
 11  6  1  0  0  0  0
 13  9  1  0  0  0  0
 14  9  1  0  0  0  0
M  END
$$$$
