butane_opt
 OpenBabel08242015413D

 14 13  0  0  0  0  0  0  0  0999 V2000
   -3.9649    0.2866   -0.0142 C   0  0  0  0  0  0  0  0  0  0  0  0
   -2.7009   -0.6401    0.1004 C   0  0  0  0  0  0  0  0  0  0  0  0
   -4.8009   -0.2388    0.0165 H   0  0  0  0  0  0  0  0  0  0  0  0
   -3.8652    0.9978   -0.9730 H   0  0  0  0  0  0  0  0  0  0  0  0
   -4.0550    0.8149    0.7005 H   0  0  0  0  0  0  0  0  0  0  0  0
   -1.3873    0.1640    0.0342 C   0  0  0  0  0  0  0  0  0  0  0  0
   -2.7588   -1.2600   -0.7331 H   0  0  0  0  0  0  0  0  0  0  0  0
   -2.7331   -1.3532    1.0671 H   0  0  0  0  0  0  0  0  0  0  0  0
   -0.1646   -0.6714   -0.0047 C   0  0  0  0  0  0  0  0  0  0  0  0
   -1.3016    0.8553    0.9357 H   0  0  0  0  0  0  0  0  0  0  0  0
   -1.4059    0.7994   -0.8614 H   0  0  0  0  0  0  0  0  0  0  0  0
   -0.2007   -1.0598    0.7203 H   0  0  0  0  0  0  0  0  0  0  0  0
    0.7129   -0.0825    0.2174 H   0  0  0  0  0  0  0  0  0  0  0  0
   -0.0309   -1.6099   -1.0769 H   0  0  0  0  0  0  0  0  0  0  0  0
  1  3  1  0  0  0  0
  1  2  1  0  0  0  0
  1  5  1  0  0  0  0
  2  8  1  0  0  0  0
  4  1  1  0  0  0  0
  6  2  1  0  0  0  0
  6 10  1  0  0  0  0
  7  2  1  0  0  0  0
  9  6  1  0  0  0  0
  9 13  1  0  0  0  0
  9 12  1  0  0  0  0
 11  6  1  0  0  0  0
 14  9  1  0  0  0  0
M  END
$$$$
