butane_opt
 OpenBabel08242015413D

 14 13  0  0  0  0  0  0  0  0999 V2000
   -3.9354    0.2593    0.0444 C   0  0  0  0  0  0  0  0  0  0  0  0
   -2.7149   -0.6122   -0.0029 C   0  0  0  0  0  0  0  0  0  0  0  0
   -4.8538   -0.3248    0.1590 H   0  0  0  0  0  0  0  0  0  0  0  0
   -4.0617    0.9315   -0.9012 H   0  0  0  0  0  0  0  0  0  0  0  0
   -3.9315    0.8812    0.8679 H   0  0  0  0  0  0  0  0  0  0  0  0
   -1.4092    0.2022   -0.0050 C   0  0  0  0  0  0  0  0  0  0  0  0
   -2.7833   -1.2891   -0.8672 H   0  0  0  0  0  0  0  0  0  0  0  0
   -2.7253   -1.2501    0.8768 H   0  0  0  0  0  0  0  0  0  0  0  0
   -0.1456   -0.7019    0.0514 C   0  0  0  0  0  0  0  0  0  0  0  0
   -1.3675    0.8555    0.8573 H   0  0  0  0  0  0  0  0  0  0  0  0
   -1.3823    0.7700   -0.8685 H   0  0  0  0  0  0  0  0  0  0  0  0
   -0.1065   -1.3675    0.9893 H   0  0  0  0  0  0  0  0  0  0  0  0
    0.7477   -0.1147    0.0522 H   0  0  0  0  0  0  0  0  0  0  0  0
   -0.0969   -1.3266   -0.7777 H   0  0  0  0  0  0  0  0  0  0  0  0
  1  3  1  0  0  0  0
  1  5  1  0  0  0  0
  2  1  1  0  0  0  0
  2  8  1  0  0  0  0
  4  1  1  0  0  0  0
  6  2  1  0  0  0  0
  6  9  1  0  0  0  0
  6 10  1  0  0  0  0
  7  2  1  0  0  0  0
  9 13  1  0  0  0  0
  9 12  1  0  0  0  0
 11  6  1  0  0  0  0
 14  9  1  0  0  0  0
M  END
$$$$
