14
butane_opt
C  -3.949562   0.242805  -0.004845
C  -2.721769  -0.601727   0.064431
H  -4.883933  -0.355500  -0.143360
H  -3.871426   0.770316  -0.821508
H  -4.061261   0.989077   0.924119
C  -1.415712   0.222045   0.023649
H  -2.665704  -1.167285  -0.660142
H  -2.718327  -1.349245   1.016590
C  -0.129173  -0.700031   0.010127
H  -1.360866   0.867759   0.842724
H  -1.403445   0.812541  -0.855043
H  -0.007042  -1.342543   0.905820
H   0.675504  -0.172457   0.046487
H  -0.124918  -1.498682  -0.927416
