14
butane_opt
C  -3.929112   0.251307   0.004095
C  -2.697264  -0.591882   0.036046
H  -4.862145  -0.361254   0.242841
H  -4.014164   1.069439  -1.017694
H  -3.817722   0.752147   0.780004
C  -1.430399   0.175834   0.053522
H  -2.630097  -1.300504  -0.878315
H  -2.817902  -1.210704   0.937328
C  -0.156770  -0.706510   0.020932
H  -1.382008   0.874378   0.895744
H  -1.405974   0.831704  -0.868271
H  -0.145621  -1.201668   0.839909
H   0.761791  -0.113784   0.003369
H  -0.139432  -1.357225  -0.886091
