butane_opt
 OpenBabel08242015413D

 14 13  0  0  0  0  0  0  0  0999 V2000
   -3.9320    0.2486    0.0595 C   0  0  0  0  0  0  0  0  0  0  0  0
   -2.7034   -0.5772   -0.0079 C   0  0  0  0  0  0  0  0  0  0  0  0
   -4.8725   -0.4239    0.0889 H   0  0  0  0  0  0  0  0  0  0  0  0
   -3.9609    0.7684   -0.7536 H   0  0  0  0  0  0  0  0  0  0  0  0
   -3.7917    0.9413    1.0122 H   0  0  0  0  0  0  0  0  0  0  0  0
   -1.4249    0.2014   -0.0499 C   0  0  0  0  0  0  0  0  0  0  0  0
   -2.7738   -1.2136   -0.8492 H   0  0  0  0  0  0  0  0  0  0  0  0
   -2.6614   -1.2383    0.8690 H   0  0  0  0  0  0  0  0  0  0  0  0
   -0.1600   -0.7085    0.0725 C   0  0  0  0  0  0  0  0  0  0  0  0
   -1.4223    0.7618    0.7278 H   0  0  0  0  0  0  0  0  0  0  0  0
   -1.3528    0.8743   -0.9865 H   0  0  0  0  0  0  0  0  0  0  0  0
   -0.2472   -1.3101    1.0082 H   0  0  0  0  0  0  0  0  0  0  0  0
    0.7261   -0.1656    0.2713 H   0  0  0  0  0  0  0  0  0  0  0  0
   -0.0187   -1.4476   -0.8370 H   0  0  0  0  0  0  0  0  0  0  0  0
  1  3  1  0  0  0  0
  1  5  1  0  0  0  0
  2  1  1  0  0  0  0
  2  8  1  0  0  0  0
  4  1  1  0  0  0  0
  6  2  1  0  0  0  0
  6  9  1  0  0  0  0
  6 10  1  0  0  0  0
  7  2  1  0  0  0  0
  9 13  1  0  0  0  0
  9 12  1  0  0  0  0
 11  6  1  0  0  0  0
 14  9  1  0  0  0  0
M  END
$$$$
