butane_opt
 OpenBabel08242015413D

 14 13  0  0  0  0  0  0  0  0999 V2000
   -3.9582    0.2956   -0.0111 C   0  0  0  0  0  0  0  0  0  0  0  0
   -2.7183   -0.6549    0.0841 C   0  0  0  0  0  0  0  0  0  0  0  0
   -4.8097   -0.2479   -0.2476 H   0  0  0  0  0  0  0  0  0  0  0  0
   -3.9456    0.7422   -0.7648 H   0  0  0  0  0  0  0  0  0  0  0  0
   -4.0626    1.0765    0.9277 H   0  0  0  0  0  0  0  0  0  0  0  0
   -1.3802    0.1763    0.0250 C   0  0  0  0  0  0  0  0  0  0  0  0
   -2.6990   -1.3467   -0.7330 H   0  0  0  0  0  0  0  0  0  0  0  0
   -2.7483   -1.2878    1.0082 H   0  0  0  0  0  0  0  0  0  0  0  0
   -0.1608   -0.6783    0.0151 C   0  0  0  0  0  0  0  0  0  0  0  0
   -1.3235    0.7935    0.8520 H   0  0  0  0  0  0  0  0  0  0  0  0
   -1.4514    0.8690   -0.9239 H   0  0  0  0  0  0  0  0  0  0  0  0
   -0.0600   -1.2956    0.9023 H   0  0  0  0  0  0  0  0  0  0  0  0
    0.8374   -0.0610   -0.0615 H   0  0  0  0  0  0  0  0  0  0  0  0
   -0.1811   -1.3613   -0.8644 H   0  0  0  0  0  0  0  0  0  0  0  0
  1  2  1  0  0  0  0
  1  5  1  0  0  0  0
  2  8  1  0  0  0  0
  3  1  1  0  0  0  0
  4  1  1  0  0  0  0
  6  2  1  0  0  0  0
  6 10  1  0  0  0  0
  7  2  1  0  0  0  0
  9  6  1  0  0  0  0
  9 12  1  0  0  0  0
 11  6  1  0  0  0  0
 13  9  1  0  0  0  0
 14  9  1  0  0  0  0
M  END
$$$$
