14
butane_opt
C  -3.931959   0.248601   0.059491
C  -2.703445  -0.577196  -0.007855
H  -4.872488  -0.423874   0.088872
H  -3.960918   0.768426  -0.753556
H  -3.791677   0.941333   1.012160
C  -1.424915   0.201387  -0.049935
H  -2.773756  -1.213579  -0.849156
H  -2.661447  -1.238325   0.869032
C  -0.159999  -0.708456   0.072532
H  -1.422305   0.761807   0.727799
H  -1.352801   0.874333  -0.986514
H  -0.247250  -1.310138   1.008195
H   0.726132  -0.165630   0.271282
H  -0.018698  -1.447604  -0.836988
