butane_opt
 OpenBabel08242015413D

 14 13  0  0  0  0  0  0  0  0999 V2000
   -3.9447    0.2742    0.0443 C   0  0  0  0  0  0  0  0  0  0  0  0
   -2.6797   -0.6277   -0.0098 C   0  0  0  0  0  0  0  0  0  0  0  0
   -4.8134   -0.2748    0.0017 H   0  0  0  0  0  0  0  0  0  0  0  0
   -3.9537    0.8172   -0.8110 H   0  0  0  0  0  0  0  0  0  0  0  0
   -3.9448    1.0389    0.9232 H   0  0  0  0  0  0  0  0  0  0  0  0
   -1.4052    0.1620    0.0069 C   0  0  0  0  0  0  0  0  0  0  0  0
   -2.7344   -1.3268   -0.8924 H   0  0  0  0  0  0  0  0  0  0  0  0
   -2.5501   -1.2912    0.8807 H   0  0  0  0  0  0  0  0  0  0  0  0
   -0.1893   -0.6678    0.0513 C   0  0  0  0  0  0  0  0  0  0  0  0
   -1.4037    0.8632    0.8224 H   0  0  0  0  0  0  0  0  0  0  0  0
   -1.3562    0.7275   -0.8300 H   0  0  0  0  0  0  0  0  0  0  0  0
   -0.0803   -1.4990    1.0875 H   0  0  0  0  0  0  0  0  0  0  0  0
    0.7015   -0.1108   -0.1728 H   0  0  0  0  0  0  0  0  0  0  0  0
   -0.2667   -1.0925   -0.6546 H   0  0  0  0  0  0  0  0  0  0  0  0
  1  5  1  0  0  0  0
  2  6  1  0  0  0  0
  2  1  1  0  0  0  0
  2  8  1  0  0  0  0
  3  1  1  0  0  0  0
  4  1  1  0  0  0  0
  6  9  1  0  0  0  0
  6 10  1  0  0  0  0
  7  2  1  0  0  0  0
  9 12  1  0  0  0  0
 11  6  1  0  0  0  0
 13  9  1  0  0  0  0
 14  9  1  0  0  0  0
M  END
$$$$
