butane_opt
 OpenBabel08242015413D

 14 13  0  0  0  0  0  0  0  0999 V2000
   -3.9642    0.2744    0.0486 C   0  0  0  0  0  0  0  0  0  0  0  0
   -2.6885   -0.6220   -0.0025 C   0  0  0  0  0  0  0  0  0  0  0  0
   -4.8509   -0.3090    0.1261 H   0  0  0  0  0  0  0  0  0  0  0  0
   -4.0373    0.9066   -0.8625 H   0  0  0  0  0  0  0  0  0  0  0  0
   -3.9174    0.8865    0.8830 H   0  0  0  0  0  0  0  0  0  0  0  0
   -1.3939    0.1654   -0.0143 C   0  0  0  0  0  0  0  0  0  0  0  0
   -2.7706   -1.3295   -0.8851 H   0  0  0  0  0  0  0  0  0  0  0  0
   -2.6371   -1.1850    0.8474 H   0  0  0  0  0  0  0  0  0  0  0  0
   -0.1648   -0.6829    0.0601 C   0  0  0  0  0  0  0  0  0  0  0  0
   -1.4005    0.8489    0.8417 H   0  0  0  0  0  0  0  0  0  0  0  0
   -1.3511    0.8156   -0.8879 H   0  0  0  0  0  0  0  0  0  0  0  0
   -0.1385   -1.3478    1.0083 H   0  0  0  0  0  0  0  0  0  0  0  0
    0.7589   -0.0937    0.0185 H   0  0  0  0  0  0  0  0  0  0  0  0
   -0.1479   -1.2799   -0.7555 H   0  0  0  0  0  0  0  0  0  0  0  0
  1  3  1  0  0  0  0
  1  5  1  0  0  0  0
  2  1  1  0  0  0  0
  2  8  1  0  0  0  0
  4  1  1  0  0  0  0
  6  2  1  0  0  0  0
  6  9  1  0  0  0  0
  6 10  1  0  0  0  0
  7  2  1  0  0  0  0
  9 12  1  0  0  0  0
 11  6  1  0  0  0  0
 13  9  1  0  0  0  0
 14  9  1  0  0  0  0
M  END
$$$$
