butane_opt
 OpenBabel08242015413D

 14 13  0  0  0  0  0  0  0  0999 V2000
   -3.9267    0.2905    0.0602 C   0  0  0  0  0  0  0  0  0  0  0  0
   -2.6842   -0.6433    0.0108 C   0  0  0  0  0  0  0  0  0  0  0  0
   -4.8483   -0.3749   -0.0397 H   0  0  0  0  0  0  0  0  0  0  0  0
   -3.9426    0.7479   -0.7228 H   0  0  0  0  0  0  0  0  0  0  0  0
   -4.0005    1.1067    0.9930 H   0  0  0  0  0  0  0  0  0  0  0  0
   -1.4067    0.1732   -0.0449 C   0  0  0  0  0  0  0  0  0  0  0  0
   -2.7452   -1.4158   -0.8596 H   0  0  0  0  0  0  0  0  0  0  0  0
   -2.6927   -1.2018    0.8596 H   0  0  0  0  0  0  0  0  0  0  0  0
   -0.1809   -0.6806    0.0666 C   0  0  0  0  0  0  0  0  0  0  0  0
   -1.4452    0.7853    0.7602 H   0  0  0  0  0  0  0  0  0  0  0  0
   -1.3282    0.9012   -1.0081 H   0  0  0  0  0  0  0  0  0  0  0  0
   -0.2639   -1.3155    1.0115 H   0  0  0  0  0  0  0  0  0  0  0  0
    0.7064   -0.1139    0.0496 H   0  0  0  0  0  0  0  0  0  0  0  0
   -0.0832   -1.2717   -0.7017 H   0  0  0  0  0  0  0  0  0  0  0  0
  1  5  1  0  0  0  0
  2  1  1  0  0  0  0
  2  8  1  0  0  0  0
  3  1  1  0  0  0  0
  4  1  1  0  0  0  0
  6  2  1  0  0  0  0
  6  9  1  0  0  0  0
  6 10  1  0  0  0  0
  7  2  1  0  0  0  0
  9 12  1  0  0  0  0
 11  6  1  0  0  0  0
 13  9  1  0  0  0  0
 14  9  1  0  0  0  0
M  END
$$$$
