butane_opt
 OpenBabel08242015413D

 14 13  0  0  0  0  0  0  0  0999 V2000
   -3.9721    0.2698    0.0725 C   0  0  0  0  0  0  0  0  0  0  0  0
   -2.6908   -0.6284   -0.0340 C   0  0  0  0  0  0  0  0  0  0  0  0
   -4.9077   -0.3368    0.2122 H   0  0  0  0  0  0  0  0  0  0  0  0
   -4.1621    0.9917   -0.8419 H   0  0  0  0  0  0  0  0  0  0  0  0
   -3.9010    0.9468    0.9196 H   0  0  0  0  0  0  0  0  0  0  0  0
   -1.3800    0.1637   -0.0450 C   0  0  0  0  0  0  0  0  0  0  0  0
   -2.7483   -1.3462   -0.9724 H   0  0  0  0  0  0  0  0  0  0  0  0
   -2.6390   -1.1689    0.7970 H   0  0  0  0  0  0  0  0  0  0  0  0
   -0.1576   -0.6753    0.0837 C   0  0  0  0  0  0  0  0  0  0  0  0
   -1.3793    0.8519    0.8316 H   0  0  0  0  0  0  0  0  0  0  0  0
   -1.4288    0.7508   -0.8844 H   0  0  0  0  0  0  0  0  0  0  0  0
   -0.1353   -1.4094    1.0875 H   0  0  0  0  0  0  0  0  0  0  0  0
    0.7705   -0.0719    0.0378 H   0  0  0  0  0  0  0  0  0  0  0  0
   -0.0851   -1.2344   -0.6627 H   0  0  0  0  0  0  0  0  0  0  0  0
  1  3  1  0  0  0  0
  1  5  1  0  0  0  0
  2  1  1  0  0  0  0
  2  8  1  0  0  0  0
  4  1  1  0  0  0  0
  6  2  1  0  0  0  0
  6  9  1  0  0  0  0
  6 10  1  0  0  0  0
  7  2  1  0  0  0  0
  9 12  1  0  0  0  0
 11  6  1  0  0  0  0
 13  9  1  0  0  0  0
 14  9  1  0  0  0  0
M  END
$$$$
