butane_opt
 OpenBabel08242015413D

 14 13  0  0  0  0  0  0  0  0999 V2000
   -3.9800    0.2733   -0.0385 C   0  0  0  0  0  0  0  0  0  0  0  0
   -2.6852   -0.6386    0.0641 C   0  0  0  0  0  0  0  0  0  0  0  0
   -4.8714   -0.3060    0.1999 H   0  0  0  0  0  0  0  0  0  0  0  0
   -4.1185    1.0482   -0.9791 H   0  0  0  0  0  0  0  0  0  0  0  0
   -3.9143    0.8785    0.7928 H   0  0  0  0  0  0  0  0  0  0  0  0
   -1.3933    0.1715    0.0591 C   0  0  0  0  0  0  0  0  0  0  0  0
   -2.7040   -1.2553   -0.7352 H   0  0  0  0  0  0  0  0  0  0  0  0
   -2.7358   -1.3096    1.0484 H   0  0  0  0  0  0  0  0  0  0  0  0
   -0.1494   -0.6858   -0.0013 C   0  0  0  0  0  0  0  0  0  0  0  0
   -1.3600    0.9279    0.9843 H   0  0  0  0  0  0  0  0  0  0  0  0
   -1.4021    0.7587   -0.7940 H   0  0  0  0  0  0  0  0  0  0  0  0
   -0.1553   -1.1858    0.8068 H   0  0  0  0  0  0  0  0  0  0  0  0
    0.8452   -0.0320   -0.0125 H   0  0  0  0  0  0  0  0  0  0  0  0
   -0.1175   -1.4300   -0.9074 H   0  0  0  0  0  0  0  0  0  0  0  0
  1  2  1  0  0  0  0
  1  3  1  0  0  0  0
  1  5  1  0  0  0  0
  2  8  1  0  0  0  0
  4  1  1  0  0  0  0
  6  2  1  0  0  0  0
  6 10  1  0  0  0  0
  7  2  1  0  0  0  0
  9  6  1  0  0  0  0
  9 12  1  0  0  0  0
 11  6  1  0  0  0  0
 13  9  1  0  0  0  0
 14  9  1  0  0  0  0
M  END
$$$$
