14
butane_opt
C  -3.962132   0.255740   0.046529
C  -2.709412  -0.597019  -0.006608
H  -4.916893  -0.394876   0.035742
H  -3.895767   0.740593  -0.783850
H  -3.906416   0.995891   0.972361
C  -1.403144   0.203406   0.005332
H  -2.667593  -1.350799  -0.970708
H  -2.766345  -1.209660   0.885401
C  -0.143694  -0.705673   0.061961
H  -1.449702   0.829055   0.798173
H  -1.418879   0.909245  -0.950170
H   0.014377  -1.489580   1.055791
H   0.758080  -0.180431  -0.165574
H  -0.154427  -1.197318  -0.679757
