14
butane_opt
C  -3.924129   0.249468  -0.048068
C  -2.693624  -0.581755   0.082597
H  -4.864042  -0.378512   0.076325
H  -3.938086   0.864672  -0.926160
H  -3.906087   0.857172   0.787146
C  -1.433161   0.181123   0.076181
H  -2.693618  -1.251487  -0.793583
H  -2.794722  -1.267197   1.054434
C  -0.146345  -0.698015  -0.016388
H  -1.415137   0.926513   0.998226
H  -1.445233   0.781602  -0.748178
H  -0.038517  -1.347687   0.922082
H   0.700994  -0.141369  -0.162981
H  -0.253875  -1.337548  -0.902590
