butane_opt
 OpenBabel08242015413D

 14 13  0  0  0  0  0  0  0  0999 V2000
   -3.9486    0.2872   -0.0150 C   0  0  0  0  0  0  0  0  0  0  0  0
   -2.6784   -0.6282    0.0829 C   0  0  0  0  0  0  0  0  0  0  0  0
   -4.8798   -0.3261   -0.1958 H   0  0  0  0  0  0  0  0  0  0  0  0
   -3.8921    0.8319   -0.8577 H   0  0  0  0  0  0  0  0  0  0  0  0
   -4.0479    0.9873    0.8863 H   0  0  0  0  0  0  0  0  0  0  0  0
   -1.3892    0.1426    0.0383 C   0  0  0  0  0  0  0  0  0  0  0  0
   -2.6893   -1.1555   -0.6633 H   0  0  0  0  0  0  0  0  0  0  0  0
   -2.6951   -1.3011    1.0081 H   0  0  0  0  0  0  0  0  0  0  0  0
   -0.1862   -0.6709    0.0024 C   0  0  0  0  0  0  0  0  0  0  0  0
   -1.3270    0.8588    0.8793 H   0  0  0  0  0  0  0  0  0  0  0  0
   -1.3916    0.7901   -0.8491 H   0  0  0  0  0  0  0  0  0  0  0  0
   -0.1605   -1.2280    0.8640 H   0  0  0  0  0  0  0  0  0  0  0  0
    0.7741   -0.0869   -0.0242 H   0  0  0  0  0  0  0  0  0  0  0  0
   -0.2861   -1.4211   -0.9187 H   0  0  0  0  0  0  0  0  0  0  0  0
  1  2  1  0  0  0  0
  1  5  1  0  0  0  0
  2  8  1  0  0  0  0
  3  1  1  0  0  0  0
  4  1  1  0  0  0  0
  6  2  1  0  0  0  0
  6 10  1  0  0  0  0
  7  2  1  0  0  0  0
  9  6  1  0  0  0  0
  9 12  1  0  0  0  0
 11  6  1  0  0  0  0
 13  9  1  0  0  0  0
 14  9  1  0  0  0  0
M  END
$$$$
