butane_opt
 OpenBabel08242015413D

 14 13  0  0  0  0  0  0  0  0999 V2000
   -3.9621    0.2557    0.0465 C   0  0  0  0  0  0  0  0  0  0  0  0
   -2.7094   -0.5970   -0.0066 C   0  0  0  0  0  0  0  0  0  0  0  0
   -4.9169   -0.3949    0.0357 H   0  0  0  0  0  0  0  0  0  0  0  0
   -3.8958    0.7406   -0.7839 H   0  0  0  0  0  0  0  0  0  0  0  0
   -3.9064    0.9959    0.9724 H   0  0  0  0  0  0  0  0  0  0  0  0
   -1.4031    0.2034    0.0053 C   0  0  0  0  0  0  0  0  0  0  0  0
   -2.6676   -1.3508   -0.9707 H   0  0  0  0  0  0  0  0  0  0  0  0
   -2.7663   -1.2097    0.8854 H   0  0  0  0  0  0  0  0  0  0  0  0
   -0.1437   -0.7057    0.0620 C   0  0  0  0  0  0  0  0  0  0  0  0
   -1.4497    0.8291    0.7982 H   0  0  0  0  0  0  0  0  0  0  0  0
   -1.4189    0.9092   -0.9502 H   0  0  0  0  0  0  0  0  0  0  0  0
    0.0144   -1.4896    1.0558 H   0  0  0  0  0  0  0  0  0  0  0  0
    0.7581   -0.1804   -0.1656 H   0  0  0  0  0  0  0  0  0  0  0  0
   -0.1544   -1.1973   -0.6798 H   0  0  0  0  0  0  0  0  0  0  0  0
  1  5  1  0  0  0  0
  2  6  1  0  0  0  0
  2  1  1  0  0  0  0
  2  8  1  0  0  0  0
  3  1  1  0  0  0  0
  4  1  1  0  0  0  0
  6  9  1  0  0  0  0
  6 10  1  0  0  0  0
  7  2  1  0  0  0  0
  9 12  1  0  0  0  0
 11  6  1  0  0  0  0
 13  9  1  0  0  0  0
 14  9  1  0  0  0  0
M  END
$$$$
