butane_opt
 OpenBabel08242015413D

 14 13  0  0  0  0  0  0  0  0999 V2000
   -3.9241    0.2495   -0.0481 C   0  0  0  0  0  0  0  0  0  0  0  0
   -2.6936   -0.5818    0.0826 C   0  0  0  0  0  0  0  0  0  0  0  0
   -4.8640   -0.3785    0.0763 H   0  0  0  0  0  0  0  0  0  0  0  0
   -3.9381    0.8647   -0.9262 H   0  0  0  0  0  0  0  0  0  0  0  0
   -3.9061    0.8572    0.7871 H   0  0  0  0  0  0  0  0  0  0  0  0
   -1.4332    0.1811    0.0762 C   0  0  0  0  0  0  0  0  0  0  0  0
   -2.6936   -1.2515   -0.7936 H   0  0  0  0  0  0  0  0  0  0  0  0
   -2.7947   -1.2672    1.0544 H   0  0  0  0  0  0  0  0  0  0  0  0
   -0.1463   -0.6980   -0.0164 C   0  0  0  0  0  0  0  0  0  0  0  0
   -1.4151    0.9265    0.9982 H   0  0  0  0  0  0  0  0  0  0  0  0
   -1.4452    0.7816   -0.7482 H   0  0  0  0  0  0  0  0  0  0  0  0
   -0.0385   -1.3477    0.9221 H   0  0  0  0  0  0  0  0  0  0  0  0
    0.7010   -0.1414   -0.1630 H   0  0  0  0  0  0  0  0  0  0  0  0
   -0.2539   -1.3375   -0.9026 H   0  0  0  0  0  0  0  0  0  0  0  0
  1  3  1  0  0  0  0
  1  2  1  0  0  0  0
  1  5  1  0  0  0  0
  2  8  1  0  0  0  0
  4  1  1  0  0  0  0
  6  2  1  0  0  0  0
  6 10  1  0  0  0  0
  7  2  1  0  0  0  0
  9  6  1  0  0  0  0
  9 12  1  0  0  0  0
 11  6  1  0  0  0  0
 13  9  1  0  0  0  0
 14  9  1  0  0  0  0
M  END
$$$$
