butane_opt
 OpenBabel08242015413D

 14 13  0  0  0  0  0  0  0  0999 V2000
   -3.9527    0.2761   -0.0343 C   0  0  0  0  0  0  0  0  0  0  0  0
   -2.6825   -0.6432    0.0704 C   0  0  0  0  0  0  0  0  0  0  0  0
   -4.8246   -0.2909    0.1898 H   0  0  0  0  0  0  0  0  0  0  0  0
   -4.1208    1.1087   -1.0113 H   0  0  0  0  0  0  0  0  0  0  0  0
   -3.9852    0.8019    0.7500 H   0  0  0  0  0  0  0  0  0  0  0  0
   -1.4006    0.1638    0.0660 C   0  0  0  0  0  0  0  0  0  0  0  0
   -2.6405   -1.2484   -0.7287 H   0  0  0  0  0  0  0  0  0  0  0  0
   -2.8396   -1.2924    1.0039 H   0  0  0  0  0  0  0  0  0  0  0  0
   -0.1598   -0.6723   -0.0136 C   0  0  0  0  0  0  0  0  0  0  0  0
   -1.3539    0.9754    1.0189 H   0  0  0  0  0  0  0  0  0  0  0  0
   -1.4144    0.7099   -0.8017 H   0  0  0  0  0  0  0  0  0  0  0  0
   -0.0718   -1.2468    0.8323 H   0  0  0  0  0  0  0  0  0  0  0  0
    0.7940   -0.0357    0.0280 H   0  0  0  0  0  0  0  0  0  0  0  0
   -0.2282   -1.4345   -0.9184 H   0  0  0  0  0  0  0  0  0  0  0  0
  1  2  1  0  0  0  0
  1  3  1  0  0  0  0
  1  5  1  0  0  0  0
  2  8  1  0  0  0  0
  4  1  1  0  0  0  0
  6  2  1  0  0  0  0
  6 10  1  0  0  0  0
  7  2  1  0  0  0  0
  9 13  1  0  0  0  0
  9  6  1  0  0  0  0
  9 12  1  0  0  0  0
 11  6  1  0  0  0  0
 14  9  1  0  0  0  0
M  END
$$$$
