butane_opt
 OpenBabel08242015413D

 14 13  0  0  0  0  0  0  0  0999 V2000
   -3.9541    0.2701   -0.0020 C   0  0  0  0  0  0  0  0  0  0  0  0
   -2.7045   -0.6282    0.0659 C   0  0  0  0  0  0  0  0  0  0  0  0
   -4.8196   -0.2538    0.0511 H   0  0  0  0  0  0  0  0  0  0  0  0
   -3.9657    0.9173   -0.9103 H   0  0  0  0  0  0  0  0  0  0  0  0
   -4.0135    0.9041    0.8250 H   0  0  0  0  0  0  0  0  0  0  0  0
   -1.3975    0.1738    0.0195 C   0  0  0  0  0  0  0  0  0  0  0  0
   -2.6899   -1.2753   -0.7547 H   0  0  0  0  0  0  0  0  0  0  0  0
   -2.7323   -1.3188    1.0076 H   0  0  0  0  0  0  0  0  0  0  0  0
   -0.1546   -0.6793    0.0077 C   0  0  0  0  0  0  0  0  0  0  0  0
   -1.3357    0.8851    0.8786 H   0  0  0  0  0  0  0  0  0  0  0  0
   -1.4504    0.8021   -0.8581 H   0  0  0  0  0  0  0  0  0  0  0  0
   -0.1820   -1.1958    0.8480 H   0  0  0  0  0  0  0  0  0  0  0  0
    0.7508   -0.0865    0.1528 H   0  0  0  0  0  0  0  0  0  0  0  0
   -0.0688   -1.4833   -0.9018 H   0  0  0  0  0  0  0  0  0  0  0  0
  1  3  1  0  0  0  0
  1  2  1  0  0  0  0
  1  5  1  0  0  0  0
  2  8  1  0  0  0  0
  4  1  1  0  0  0  0
  6  2  1  0  0  0  0
  6 10  1  0  0  0  0
  7  2  1  0  0  0  0
  9  6  1  0  0  0  0
  9 13  1  0  0  0  0
  9 12  1  0  0  0  0
 11  6  1  0  0  0  0
 14  9  1  0  0  0  0
M  END
$$$$
