butane_opt
 OpenBabel08242015413D

 14 13  0  0  0  0  0  0  0  0999 V2000
   -3.9520    0.2455   -0.0062 C   0  0  0  0  0  0  0  0  0  0  0  0
   -2.7268   -0.6047    0.0325 C   0  0  0  0  0  0  0  0  0  0  0  0
   -4.7561   -0.2632    0.3179 H   0  0  0  0  0  0  0  0  0  0  0  0
   -4.0324    1.0095   -1.0066 H   0  0  0  0  0  0  0  0  0  0  0  0
   -3.9087    0.6995    0.7788 H   0  0  0  0  0  0  0  0  0  0  0  0
   -1.4120    0.2110    0.0400 C   0  0  0  0  0  0  0  0  0  0  0  0
   -2.7187   -1.2440   -0.8207 H   0  0  0  0  0  0  0  0  0  0  0  0
   -2.7309   -1.3012    0.9808 H   0  0  0  0  0  0  0  0  0  0  0  0
   -0.1333   -0.7040    0.0105 C   0  0  0  0  0  0  0  0  0  0  0  0
   -1.3232    0.9654    0.9678 H   0  0  0  0  0  0  0  0  0  0  0  0
   -1.4749    0.7833   -0.8157 H   0  0  0  0  0  0  0  0  0  0  0  0
   -0.1186   -1.2704    0.8866 H   0  0  0  0  0  0  0  0  0  0  0  0
    0.7397   -0.1456    0.1156 H   0  0  0  0  0  0  0  0  0  0  0  0
   -0.0191   -1.4661   -0.9007 H   0  0  0  0  0  0  0  0  0  0  0  0
  1  2  1  0  0  0  0
  1  3  1  0  0  0  0
  1  5  1  0  0  0  0
  2  6  1  0  0  0  0
  2  8  1  0  0  0  0
  4  1  1  0  0  0  0
  6 10  1  0  0  0  0
  7  2  1  0  0  0  0
  9  6  1  0  0  0  0
  9 13  1  0  0  0  0
  9 12  1  0  0  0  0
 11  6  1  0  0  0  0
 14  9  1  0  0  0  0
M  END
$$$$
