14
butane_opt
C  -3.938969   0.248290   0.084249
C  -2.723856  -0.620685  -0.012800
H  -4.840147  -0.363408   0.110173
H  -3.977376   0.895021  -0.826712
H  -3.921715   0.943617   0.961753
C  -1.415763   0.230439  -0.078669
H  -2.895601  -1.312018  -0.901107
H  -2.668406  -1.146124   0.831755
C  -0.141098  -0.722134   0.102322
H  -1.387917   0.855980   0.721486
H  -1.375169   0.888013  -1.002603
H  -0.170704  -1.216391   0.947261
H   0.782882  -0.153983   0.196438
H   0.069225  -1.497501  -0.755837
