14
butane_opt
C  -3.941547   0.267025  -0.023338
C  -2.687768  -0.611818   0.079263
H  -4.810321  -0.321469   0.100364
H  -3.931151   1.072292  -1.031842
H  -3.959418   0.813788   0.803374
C  -1.412701   0.167524   0.048556
H  -2.665570  -1.192484  -0.709298
H  -2.816938  -1.402485   1.081685
C  -0.163358  -0.681581  -0.011940
H  -1.435293   0.870382   0.951667
H  -1.405749   0.716996  -0.817878
H  -0.135101  -1.102557   0.740476
H   0.770057  -0.032744   0.190531
H  -0.184208  -1.566117  -1.010264
