butane_opt
 OpenBabel08242015413D

 14 13  0  0  0  0  0  0  0  0999 V2000
   -3.9415    0.2670   -0.0233 C   0  0  0  0  0  0  0  0  0  0  0  0
   -2.6878   -0.6118    0.0793 C   0  0  0  0  0  0  0  0  0  0  0  0
   -4.8103   -0.3215    0.1004 H   0  0  0  0  0  0  0  0  0  0  0  0
   -3.9312    1.0723   -1.0318 H   0  0  0  0  0  0  0  0  0  0  0  0
   -3.9594    0.8138    0.8034 H   0  0  0  0  0  0  0  0  0  0  0  0
   -1.4127    0.1675    0.0486 C   0  0  0  0  0  0  0  0  0  0  0  0
   -2.6656   -1.1925   -0.7093 H   0  0  0  0  0  0  0  0  0  0  0  0
   -2.8169   -1.4025    1.0817 H   0  0  0  0  0  0  0  0  0  0  0  0
   -0.1634   -0.6816   -0.0119 C   0  0  0  0  0  0  0  0  0  0  0  0
   -1.4353    0.8704    0.9517 H   0  0  0  0  0  0  0  0  0  0  0  0
   -1.4057    0.7170   -0.8179 H   0  0  0  0  0  0  0  0  0  0  0  0
   -0.1351   -1.1026    0.7405 H   0  0  0  0  0  0  0  0  0  0  0  0
    0.7701   -0.0327    0.1905 H   0  0  0  0  0  0  0  0  0  0  0  0
   -0.1842   -1.5661   -1.0103 H   0  0  0  0  0  0  0  0  0  0  0  0
  1  2  1  0  0  0  0
  1  3  1  0  0  0  0
  1  5  1  0  0  0  0
  2  8  1  0  0  0  0
  4  1  1  0  0  0  0
  6  2  1  0  0  0  0
  6 10  1  0  0  0  0
  7  2  1  0  0  0  0
  9  6  1  0  0  0  0
  9 13  1  0  0  0  0
  9 12  1  0  0  0  0
 11  6  1  0  0  0  0
 14  9  1  0  0  0  0
M  END
$$$$
