butane_opt
 OpenBabel08242015413D

 14 13  0  0  0  0  0  0  0  0999 V2000
   -3.9267    0.2469   -0.0189 C   0  0  0  0  0  0  0  0  0  0  0  0
   -2.6991   -0.5841    0.1131 C   0  0  0  0  0  0  0  0  0  0  0  0
   -4.8948   -0.3506    0.1031 H   0  0  0  0  0  0  0  0  0  0  0  0
   -3.9234    0.9609   -1.0060 H   0  0  0  0  0  0  0  0  0  0  0  0
   -4.0701    0.8141    0.7405 H   0  0  0  0  0  0  0  0  0  0  0  0
   -1.4075    0.1820    0.0287 C   0  0  0  0  0  0  0  0  0  0  0  0
   -2.6836   -1.2878   -0.7525 H   0  0  0  0  0  0  0  0  0  0  0  0
   -2.8220   -1.2752    0.9958 H   0  0  0  0  0  0  0  0  0  0  0  0
   -0.1528   -0.7040   -0.0091 C   0  0  0  0  0  0  0  0  0  0  0  0
   -1.4106    0.8969    0.8970 H   0  0  0  0  0  0  0  0  0  0  0  0
   -1.5066    0.8492   -0.8900 H   0  0  0  0  0  0  0  0  0  0  0  0
   -0.2096   -1.0469    0.7246 H   0  0  0  0  0  0  0  0  0  0  0  0
    0.7725   -0.1213    0.2735 H   0  0  0  0  0  0  0  0  0  0  0  0
   -0.0339   -1.6105   -1.0306 H   0  0  0  0  0  0  0  0  0  0  0  0
  1  3  1  0  0  0  0
  1  2  1  0  0  0  0
  1  5  1  0  0  0  0
  2  8  1  0  0  0  0
  4  1  1  0  0  0  0
  6  2  1  0  0  0  0
  6 10  1  0  0  0  0
  7  2  1  0  0  0  0
  9  6  1  0  0  0  0
  9 13  1  0  0  0  0
  9 12  1  0  0  0  0
 11  6  1  0  0  0  0
 14  9  1  0  0  0  0
M  END
$$$$
