butane_opt
 OpenBabel08242015413D

 14 13  0  0  0  0  0  0  0  0999 V2000
   -3.9332    0.2492   -0.0516 C   0  0  0  0  0  0  0  0  0  0  0  0
   -2.7013   -0.5965    0.1197 C   0  0  0  0  0  0  0  0  0  0  0  0
   -4.8718   -0.3462   -0.1229 H   0  0  0  0  0  0  0  0  0  0  0  0
   -3.8098    0.7873   -0.8634 H   0  0  0  0  0  0  0  0  0  0  0  0
   -4.0673    0.9698    0.8424 H   0  0  0  0  0  0  0  0  0  0  0  0
   -1.4120    0.1938    0.0565 C   0  0  0  0  0  0  0  0  0  0  0  0
   -2.6378   -1.2282   -0.7015 H   0  0  0  0  0  0  0  0  0  0  0  0
   -2.7741   -1.2952    1.0549 H   0  0  0  0  0  0  0  0  0  0  0  0
   -0.1623   -0.7099   -0.0238 C   0  0  0  0  0  0  0  0  0  0  0  0
   -1.3568    0.9492    1.0043 H   0  0  0  0  0  0  0  0  0  0  0  0
   -1.5666    0.7937   -0.8272 H   0  0  0  0  0  0  0  0  0  0  0  0
   -0.0484   -1.2888    0.8272 H   0  0  0  0  0  0  0  0  0  0  0  0
    0.7744   -0.0586   -0.0895 H   0  0  0  0  0  0  0  0  0  0  0  0
   -0.1664   -1.3968   -0.8809 H   0  0  0  0  0  0  0  0  0  0  0  0
  1  2  1  0  0  0  0
  1  5  1  0  0  0  0
  2  8  1  0  0  0  0
  3  1  1  0  0  0  0
  4  1  1  0  0  0  0
  6  2  1  0  0  0  0
  6 10  1  0  0  0  0
  7  2  1  0  0  0  0
  9  6  1  0  0  0  0
  9 12  1  0  0  0  0
 11  6  1  0  0  0  0
 13  9  1  0  0  0  0
 14  9  1  0  0  0  0
M  END
$$$$
