butane_opt
 OpenBabel08242015413D

 14 13  0  0  0  0  0  0  0  0999 V2000
   -3.9686    0.2656   -0.0161 C   0  0  0  0  0  0  0  0  0  0  0  0
   -2.6994   -0.6197    0.0293 C   0  0  0  0  0  0  0  0  0  0  0  0
   -4.8721   -0.3690    0.3201 H   0  0  0  0  0  0  0  0  0  0  0  0
   -4.0711    1.1036   -1.0128 H   0  0  0  0  0  0  0  0  0  0  0  0
   -3.8926    0.7670    0.7595 H   0  0  0  0  0  0  0  0  0  0  0  0
   -1.3933    0.1925    0.0584 C   0  0  0  0  0  0  0  0  0  0  0  0
   -2.6867   -1.2472   -0.7945 H   0  0  0  0  0  0  0  0  0  0  0  0
   -2.6398   -1.3601    0.9765 H   0  0  0  0  0  0  0  0  0  0  0  0
   -0.1469   -0.6894    0.0087 C   0  0  0  0  0  0  0  0  0  0  0  0
   -1.4076    0.9414    0.9834 H   0  0  0  0  0  0  0  0  0  0  0  0
   -1.3537    0.7304   -0.7773 H   0  0  0  0  0  0  0  0  0  0  0  0
   -0.1174   -1.2797    0.9079 H   0  0  0  0  0  0  0  0  0  0  0  0
    0.7446   -0.1112    0.0176 H   0  0  0  0  0  0  0  0  0  0  0  0
   -0.2198   -1.4305   -0.9317 H   0  0  0  0  0  0  0  0  0  0  0  0
  1  2  1  0  0  0  0
  1  3  1  0  0  0  0
  1  5  1  0  0  0  0
  2  6  1  0  0  0  0
  2  8  1  0  0  0  0
  4  1  1  0  0  0  0
  6 10  1  0  0  0  0
  7  2  1  0  0  0  0
  9 13  1  0  0  0  0
  9  6  1  0  0  0  0
  9 12  1  0  0  0  0
 11  6  1  0  0  0  0
 14  9  1  0  0  0  0
M  END
$$$$
