14
butane_opt
C  -3.968926   0.247621   0.051084
C  -2.715827  -0.585593   0.024886
H  -4.875109  -0.355790   0.024573
H  -3.898637   0.796005  -0.851491
H  -3.970861   0.934681   0.970667
C  -1.401237   0.212691  -0.035095
H  -2.824623  -1.300715  -0.904717
H  -2.661133  -1.243542   0.941520
C  -0.134905  -0.717813   0.060840
H  -1.386649   0.784372   0.762171
H  -1.334466   0.886441  -0.964981
H  -0.222316  -1.264795   0.882632
H   0.751083  -0.148848   0.194419
H   0.059392  -1.443079  -0.842918
