14
butane_opt
C  -3.943552   0.267708   0.055778
C  -2.686110  -0.619178  -0.007213
H  -4.843372  -0.324730   0.150409
H  -4.032682   0.943618  -0.880360
H  -3.866709   0.872972   0.910711
C  -1.402556   0.176680  -0.019814
H  -2.724549  -1.333785  -0.878599
H  -2.705773  -1.166667   0.826278
C  -0.176858  -0.688967   0.062022
H  -1.378020   0.832333   0.835836
H  -1.366238   0.840243  -0.921301
H  -0.210961  -1.345780   0.998073
H   0.720223  -0.104925   0.078690
H  -0.107815  -1.318244  -0.770877
