butane_opt
 OpenBabel08242015413D

 14 13  0  0  0  0  0  0  0  0999 V2000
   -3.9236    0.2507   -0.0186 C   0  0  0  0  0  0  0  0  0  0  0  0
   -2.6942   -0.5975    0.0797 C   0  0  0  0  0  0  0  0  0  0  0  0
   -4.9077   -0.3695    0.1508 H   0  0  0  0  0  0  0  0  0  0  0  0
   -3.8952    1.0648   -1.0649 H   0  0  0  0  0  0  0  0  0  0  0  0
   -3.9218    0.6824    0.7034 H   0  0  0  0  0  0  0  0  0  0  0  0
   -1.4256    0.1949    0.0552 C   0  0  0  0  0  0  0  0  0  0  0  0
   -2.6597   -1.2958   -0.7975 H   0  0  0  0  0  0  0  0  0  0  0  0
   -2.7165   -1.2103    0.9808 H   0  0  0  0  0  0  0  0  0  0  0  0
   -0.1589   -0.6954   -0.0047 C   0  0  0  0  0  0  0  0  0  0  0  0
   -1.4237    1.0067    0.9928 H   0  0  0  0  0  0  0  0  0  0  0  0
   -1.4537    0.7204   -0.7683 H   0  0  0  0  0  0  0  0  0  0  0  0
   -0.1270   -1.2821    0.8786 H   0  0  0  0  0  0  0  0  0  0  0  0
    0.7195   -0.1215   -0.0478 H   0  0  0  0  0  0  0  0  0  0  0  0
   -0.2027   -1.5109   -0.9616 H   0  0  0  0  0  0  0  0  0  0  0  0
  1  2  1  0  0  0  0
  1  3  1  0  0  0  0
  1  5  1  0  0  0  0
  2  8  1  0  0  0  0
  4  1  1  0  0  0  0
  6  2  1  0  0  0  0
  6 10  1  0  0  0  0
  7  2  1  0  0  0  0
  9  6  1  0  0  0  0
  9 12  1  0  0  0  0
 11  6  1  0  0  0  0
 13  9  1  0  0  0  0
 14  9  1  0  0  0  0
M  END
$$$$
