14
butane_opt
C  -3.949313   0.289638  -0.040798
C  -2.687627  -0.621542   0.109798
H  -4.767431  -0.263038  -0.155100
H  -3.831357   0.808736  -0.917715
H  -4.080307   0.978080   0.800919
C  -1.399771   0.138417   0.057973
H  -2.755186  -1.236768  -0.716417
H  -2.721573  -1.355106   1.082714
C  -0.177084  -0.670683  -0.022287
H  -1.335292   0.917045   1.043373
H  -1.431455   0.696252  -0.770359
H  -0.127209  -1.285890   0.882990
H   0.802712  -0.016624  -0.154588
H  -0.241403  -1.322595  -0.917378
