butane_opt
 OpenBabel08242015413D

 14 13  0  0  0  0  0  0  0  0999 V2000
   -3.9613    0.2745   -0.0054 C   0  0  0  0  0  0  0  0  0  0  0  0
   -2.7032   -0.6308    0.0548 C   0  0  0  0  0  0  0  0  0  0  0  0
   -4.8421   -0.2891   -0.0136 H   0  0  0  0  0  0  0  0  0  0  0  0
   -3.9691    0.9155   -0.9217 H   0  0  0  0  0  0  0  0  0  0  0  0
   -3.9807    0.8847    0.8117 H   0  0  0  0  0  0  0  0  0  0  0  0
   -1.3879    0.1892    0.0604 C   0  0  0  0  0  0  0  0  0  0  0  0
   -2.6814   -1.3086   -0.8100 H   0  0  0  0  0  0  0  0  0  0  0  0
   -2.7214   -1.2757    0.9480 H   0  0  0  0  0  0  0  0  0  0  0  0
   -0.1649   -0.6929    0.0038 C   0  0  0  0  0  0  0  0  0  0  0  0
   -1.3788    0.8797    0.9318 H   0  0  0  0  0  0  0  0  0  0  0  0
   -1.3377    0.8071   -0.8390 H   0  0  0  0  0  0  0  0  0  0  0  0
   -0.0168   -1.3586    0.9597 H   0  0  0  0  0  0  0  0  0  0  0  0
    0.7439   -0.0918   -0.1524 H   0  0  0  0  0  0  0  0  0  0  0  0
   -0.2401   -1.3086   -0.8414 H   0  0  0  0  0  0  0  0  0  0  0  0
  1  2  1  0  0  0  0
  1  5  1  0  0  0  0
  2  6  1  0  0  0  0
  2  8  1  0  0  0  0
  3  1  1  0  0  0  0
  4  1  1  0  0  0  0
  6 10  1  0  0  0  0
  7  2  1  0  0  0  0
  9  6  1  0  0  0  0
  9 12  1  0  0  0  0
 11  6  1  0  0  0  0
 13  9  1  0  0  0  0
 14  9  1  0  0  0  0
M  END
$$$$
