butane_opt
 OpenBabel08242015413D

 14 13  0  0  0  0  0  0  0  0999 V2000
   -3.9268    0.2538   -0.0181 C   0  0  0  0  0  0  0  0  0  0  0  0
   -2.7100   -0.5958    0.0975 C   0  0  0  0  0  0  0  0  0  0  0  0
   -4.8785   -0.3613    0.0510 H   0  0  0  0  0  0  0  0  0  0  0  0
   -3.8813    0.9116   -0.9987 H   0  0  0  0  0  0  0  0  0  0  0  0
   -3.9636    0.7503    0.7305 H   0  0  0  0  0  0  0  0  0  0  0  0
   -1.4324    0.2108    0.0452 C   0  0  0  0  0  0  0  0  0  0  0  0
   -2.6555   -1.1630   -0.7284 H   0  0  0  0  0  0  0  0  0  0  0  0
   -2.7790   -1.3193    1.0483 H   0  0  0  0  0  0  0  0  0  0  0  0
   -0.1376   -0.7108   -0.0041 C   0  0  0  0  0  0  0  0  0  0  0  0
   -1.4156    0.8308    0.8665 H   0  0  0  0  0  0  0  0  0  0  0  0
   -1.4190    0.8150   -0.8401 H   0  0  0  0  0  0  0  0  0  0  0  0
   -0.1972   -1.0297    0.6869 H   0  0  0  0  0  0  0  0  0  0  0  0
    0.7562   -0.1528    0.1722 H   0  0  0  0  0  0  0  0  0  0  0  0
   -0.0978   -1.6587   -1.0332 H   0  0  0  0  0  0  0  0  0  0  0  0
  1  3  1  0  0  0  0
  1  2  1  0  0  0  0
  1  5  1  0  0  0  0
  2  8  1  0  0  0  0
  4  1  1  0  0  0  0
  6  2  1  0  0  0  0
  6 10  1  0  0  0  0
  7  2  1  0  0  0  0
  9  6  1  0  0  0  0
  9 13  1  0  0  0  0
  9 12  1  0  0  0  0
 11  6  1  0  0  0  0
 14  9  1  0  0  0  0
M  END
$$$$
