14
butane_opt
C  -3.926782   0.253842  -0.018072
C  -2.709971  -0.595837   0.097513
H  -4.878542  -0.361307   0.051009
H  -3.881263   0.911642  -0.998652
H  -3.963574   0.750347   0.730503
C  -1.432365   0.210830   0.045178
H  -2.655451  -1.162983  -0.728394
H  -2.778991  -1.319321   1.048254
C  -0.137641  -0.710846  -0.004142
H  -1.415589   0.830823   0.866542
H  -1.419041   0.815023  -0.840130
H  -0.197183  -1.029696   0.686894
H   0.756213  -0.152822   0.172182
H  -0.097826  -1.658734  -1.033197
