14
butane_opt
C  -3.953138   0.292669   0.076440
C  -2.690067  -0.639407  -0.055235
H  -4.897547  -0.297978   0.275644
H  -4.147244   0.927084  -0.811766
H  -3.862165   0.815815   0.828283
C  -1.406511   0.159926  -0.028892
H  -2.780966  -1.310229  -0.920110
H  -2.642894  -1.244112   0.816186
C  -0.148566  -0.677533   0.092548
H  -1.441784   0.812437   0.798333
H  -1.362763   0.842432  -0.887477
H  -0.208162  -1.291152   1.033630
H   0.813528  -0.055481   0.025770
H  -0.124178  -1.298185  -0.752211
