14
butane_opt
C  -3.943405   0.248499  -0.005551
C  -2.720877  -0.598621   0.070169
H  -4.876283  -0.375248  -0.137533
H  -3.849487   0.911673  -0.944332
H  -4.047126   0.960738   0.861374
C  -1.417958   0.203106   0.060518
H  -2.782320  -1.302589  -0.808915
H  -2.699075  -1.189193   0.940431
C  -0.125173  -0.709370  -0.004274
H  -1.344968   0.836319   0.931626
H  -1.433470   0.795603  -0.810788
H  -0.041227  -1.455867   0.954195
H   0.818718  -0.144979  -0.160900
H  -0.267594  -1.227045  -0.824196
