14
butane_opt
C  -3.967929   0.288489  -0.025152
C  -2.701451  -0.644045   0.115282
H  -4.860884  -0.270145  -0.253398
H  -3.790743   0.908395  -0.945715
H  -4.124327   1.038127   0.857617
C  -1.390210   0.158443   0.061065
H  -2.696566  -1.291352  -0.741521
H  -2.822400  -1.306332   1.078842
C  -0.150345  -0.678243  -0.024674
H  -1.338448   0.854955   0.898878
H  -1.391856   0.754895  -0.829984
H  -0.074475  -1.244780   0.864482
H   0.834289  -0.018939  -0.084783
H  -0.257727  -1.381651  -0.920919
