14
butane_opt
C  -3.939725   0.279703   0.042610
C  -2.709128  -0.656483   0.031772
H  -4.871587  -0.293587  -0.190668
H  -3.913792   0.727069  -0.717393
H  -4.145129   1.214807   1.048127
C  -1.390645   0.191458  -0.021754
H  -2.654605  -1.289063  -0.806410
H  -2.742768  -1.279254   0.894439
C  -0.157597  -0.685369   0.057582
H  -1.408851   0.716174   0.763661
H  -1.338753   0.898420  -1.003560
H  -0.139422  -1.320173   0.958750
H   0.741935  -0.068261  -0.040192
H  -0.181611  -1.333990  -0.757720
