14
butane_opt
C  -3.939039   0.262023  -0.035594
C  -2.681169  -0.604900   0.082761
H  -4.865941  -0.353437   0.029404
H  -3.946452   1.029244  -0.993255
H  -3.935071   0.825362   0.729394
C  -1.412240   0.160718   0.089348
H  -2.613827  -1.263529  -0.725735
H  -2.754586  -1.265537   0.966220
C  -0.171410  -0.678199  -0.038237
H  -1.352890   0.962946   1.031982
H  -1.436700   0.681593  -0.710336
H  -0.133915  -1.368632   0.899517
H   0.703695  -0.151886  -0.146754
H  -0.235799  -1.242603  -0.828277
