butane_opt
 OpenBabel08242015413D

 14 13  0  0  0  0  0  0  0  0999 V2000
   -3.9513    0.2473   -0.0455 C   0  0  0  0  0  0  0  0  0  0  0  0
   -2.7166   -0.5870    0.1009 C   0  0  0  0  0  0  0  0  0  0  0  0
   -4.8665   -0.3141   -0.0547 H   0  0  0  0  0  0  0  0  0  0  0  0
   -3.8713    0.9245   -0.9653 H   0  0  0  0  0  0  0  0  0  0  0  0
   -4.0789    0.8053    0.7163 H   0  0  0  0  0  0  0  0  0  0  0  0
   -1.4065    0.1919    0.0980 C   0  0  0  0  0  0  0  0  0  0  0  0
   -2.7856   -1.3342   -0.7667 H   0  0  0  0  0  0  0  0  0  0  0  0
   -2.7239   -1.2375    0.9903 H   0  0  0  0  0  0  0  0  0  0  0  0
   -0.1339   -0.7034   -0.0381 C   0  0  0  0  0  0  0  0  0  0  0  0
   -1.3903    0.9354    1.0304 H   0  0  0  0  0  0  0  0  0  0  0  0
   -1.5150    0.7953   -0.7470 H   0  0  0  0  0  0  0  0  0  0  0  0
    0.1231   -1.4424    0.8737 H   0  0  0  0  0  0  0  0  0  0  0  0
    0.7895   -0.0831   -0.1747 H   0  0  0  0  0  0  0  0  0  0  0  0
   -0.2199   -1.2935   -0.8439 H   0  0  0  0  0  0  0  0  0  0  0  0
  1  2  1  0  0  0  0
  1  5  1  0  0  0  0
  2  8  1  0  0  0  0
  3  1  1  0  0  0  0
  4  1  1  0  0  0  0
  6  2  1  0  0  0  0
  6 10  1  0  0  0  0
  7  2  1  0  0  0  0
  9  6  1  0  0  0  0
  9 12  1  0  0  0  0
 11  6  1  0  0  0  0
 13  9  1  0  0  0  0
 14  9  1  0  0  0  0
M  END
$$$$
