butane_opt
 OpenBabel08242015413D

 14 13  0  0  0  0  0  0  0  0999 V2000
   -3.9555    0.2776    0.0576 C   0  0  0  0  0  0  0  0  0  0  0  0
   -2.7124   -0.6115   -0.0274 C   0  0  0  0  0  0  0  0  0  0  0  0
   -4.8598   -0.3525    0.0043 H   0  0  0  0  0  0  0  0  0  0  0  0
   -4.0136    0.7850   -0.7742 H   0  0  0  0  0  0  0  0  0  0  0  0
   -3.9241    1.0677    1.0202 H   0  0  0  0  0  0  0  0  0  0  0  0
   -1.3964    0.1640   -0.0010 C   0  0  0  0  0  0  0  0  0  0  0  0
   -2.7250   -1.3963   -0.9310 H   0  0  0  0  0  0  0  0  0  0  0  0
   -2.7174   -1.1783    0.8266 H   0  0  0  0  0  0  0  0  0  0  0  0
   -0.1580   -0.6938    0.0753 C   0  0  0  0  0  0  0  0  0  0  0  0
   -1.3153    0.7493    0.8082 H   0  0  0  0  0  0  0  0  0  0  0  0
   -1.3648    0.8825   -1.0010 H   0  0  0  0  0  0  0  0  0  0  0  0
    0.0096   -1.5162    1.0488 H   0  0  0  0  0  0  0  0  0  0  0  0
    0.7678   -0.0541   -0.1549 H   0  0  0  0  0  0  0  0  0  0  0  0
   -0.2223   -1.0749   -0.6112 H   0  0  0  0  0  0  0  0  0  0  0  0
  1  5  1  0  0  0  0
  2  6  1  0  0  0  0
  2  1  1  0  0  0  0
  2  8  1  0  0  0  0
  3  1  1  0  0  0  0
  4  1  1  0  0  0  0
  6  9  1  0  0  0  0
  6 10  1  0  0  0  0
  7  2  1  0  0  0  0
  9 12  1  0  0  0  0
 11  6  1  0  0  0  0
 13  9  1  0  0  0  0
 14  9  1  0  0  0  0
M  END
$$$$
