14
butane_opt
C  -3.951302   0.247316  -0.045495
C  -2.716613  -0.586962   0.100870
H  -4.866496  -0.314082  -0.054662
H  -3.871267   0.924534  -0.965286
H  -4.078853   0.805315   0.716333
C  -1.406527   0.191930   0.097968
H  -2.785633  -1.334249  -0.766673
H  -2.723907  -1.237522   0.990251
C  -0.133903  -0.703439  -0.038090
H  -1.390290   0.935428   1.030395
H  -1.514990   0.795315  -0.746979
H   0.123092  -1.442379   0.873682
H   0.789451  -0.083106  -0.174716
H  -0.219921  -1.293535  -0.843924
