butane_opt
 OpenBabel08242015413D

 14 13  0  0  0  0  0  0  0  0999 V2000
   -3.9390    0.2620   -0.0356 C   0  0  0  0  0  0  0  0  0  0  0  0
   -2.6812   -0.6049    0.0828 C   0  0  0  0  0  0  0  0  0  0  0  0
   -4.8659   -0.3534    0.0294 H   0  0  0  0  0  0  0  0  0  0  0  0
   -3.9465    1.0292   -0.9933 H   0  0  0  0  0  0  0  0  0  0  0  0
   -3.9351    0.8254    0.7294 H   0  0  0  0  0  0  0  0  0  0  0  0
   -1.4122    0.1607    0.0893 C   0  0  0  0  0  0  0  0  0  0  0  0
   -2.6138   -1.2635   -0.7257 H   0  0  0  0  0  0  0  0  0  0  0  0
   -2.7546   -1.2655    0.9662 H   0  0  0  0  0  0  0  0  0  0  0  0
   -0.1714   -0.6782   -0.0382 C   0  0  0  0  0  0  0  0  0  0  0  0
   -1.3529    0.9629    1.0320 H   0  0  0  0  0  0  0  0  0  0  0  0
   -1.4367    0.6816   -0.7103 H   0  0  0  0  0  0  0  0  0  0  0  0
   -0.1339   -1.3686    0.8995 H   0  0  0  0  0  0  0  0  0  0  0  0
    0.7037   -0.1519   -0.1468 H   0  0  0  0  0  0  0  0  0  0  0  0
   -0.2358   -1.2426   -0.8283 H   0  0  0  0  0  0  0  0  0  0  0  0
  1  3  1  0  0  0  0
  1  2  1  0  0  0  0
  1  5  1  0  0  0  0
  2  6  1  0  0  0  0
  2  8  1  0  0  0  0
  4  1  1  0  0  0  0
  6 10  1  0  0  0  0
  7  2  1  0  0  0  0
  9  6  1  0  0  0  0
  9 12  1  0  0  0  0
 11  6  1  0  0  0  0
 13  9  1  0  0  0  0
 14  9  1  0  0  0  0
M  END
$$$$
