14
butane_opt
C  -3.935069   0.273425  -0.023994
C  -2.676483  -0.624826   0.102628
H  -4.812275  -0.269889  -0.028611
H  -3.794179   0.923766  -0.994230
H  -4.093962   0.899482   0.759702
C  -1.418122   0.166986   0.065158
H  -2.637405  -1.333458  -0.743501
H  -2.776475  -1.310683   1.024629
C  -0.184414  -0.668873  -0.018866
H  -1.356647   0.849611   0.906386
H  -1.423108   0.755965  -0.830069
H  -0.098026  -1.177627   0.811767
H   0.718123  -0.138818  -0.018043
H  -0.195682  -1.416419  -0.947418
