butane_opt
 OpenBabel08242015413D

 14 13  0  0  0  0  0  0  0  0999 V2000
   -3.9199    0.2427    0.0651 C   0  0  0  0  0  0  0  0  0  0  0  0
   -2.7156   -0.5909   -0.0032 C   0  0  0  0  0  0  0  0  0  0  0  0
   -4.8685   -0.3535    0.1271 H   0  0  0  0  0  0  0  0  0  0  0  0
   -3.9905    0.8719   -0.8429 H   0  0  0  0  0  0  0  0  0  0  0  0
   -3.9760    0.8705    0.9143 H   0  0  0  0  0  0  0  0  0  0  0  0
   -1.4283    0.2113   -0.0472 C   0  0  0  0  0  0  0  0  0  0  0  0
   -2.7884   -1.3756   -0.8770 H   0  0  0  0  0  0  0  0  0  0  0  0
   -2.7207   -1.1479    0.8345 H   0  0  0  0  0  0  0  0  0  0  0  0
   -0.1414   -0.7067    0.0807 C   0  0  0  0  0  0  0  0  0  0  0  0
   -1.4486    0.8927    0.8136 H   0  0  0  0  0  0  0  0  0  0  0  0
   -1.3622    0.8389   -0.9386 H   0  0  0  0  0  0  0  0  0  0  0  0
   -0.1545   -1.3709    1.0064 H   0  0  0  0  0  0  0  0  0  0  0  0
    0.7719   -0.1559    0.0395 H   0  0  0  0  0  0  0  0  0  0  0  0
   -0.0179   -1.4210   -0.7900 H   0  0  0  0  0  0  0  0  0  0  0  0
  1  3  1  0  0  0  0
  1  5  1  0  0  0  0
  2  1  1  0  0  0  0
  2  8  1  0  0  0  0
  4  1  1  0  0  0  0
  6  2  1  0  0  0  0
  6  9  1  0  0  0  0
  6 10  1  0  0  0  0
  7  2  1  0  0  0  0
  9 12  1  0  0  0  0
 11  6  1  0  0  0  0
 13  9  1  0  0  0  0
 14  9  1  0  0  0  0
M  END
$$$$
