14
butane_opt
C  -3.919938   0.242694   0.065147
C  -2.715636  -0.590854  -0.003160
H  -4.868452  -0.353490   0.127055
H  -3.990502   0.871912  -0.842883
H  -3.975954   0.870538   0.914265
C  -1.428302   0.211295  -0.047215
H  -2.788377  -1.375644  -0.877032
H  -2.720650  -1.147936   0.834520
C  -0.141422  -0.706653   0.080721
H  -1.448561   0.892685   0.813584
H  -1.362177   0.838857  -0.938578
H  -0.154538  -1.370856   1.006433
H   0.771928  -0.155880   0.039473
H  -0.017933  -1.420981  -0.789960
