14
butane_opt
C  -3.942635   0.249911   0.043348
C  -2.702830  -0.602562  -0.017611
H  -4.883198  -0.342437   0.243865
H  -4.067054   0.854990  -0.851194
H  -3.808838   0.838734   0.895837
C  -1.412061   0.226227  -0.017610
H  -2.789326  -1.259098  -0.876694
H  -2.634632  -1.287129   0.883184
C  -0.160032  -0.715311   0.076814
H  -1.418650   0.910916   0.858688
H  -1.295938   0.842376  -0.936200
H  -0.149077  -1.337646   0.947227
H   0.725818  -0.190896   0.042094
H  -0.080850  -1.403374  -0.800946
