butane_opt
 OpenBabel08242015413D

 14 13  0  0  0  0  0  0  0  0999 V2000
   -3.9377    0.2562    0.0750 C   0  0  0  0  0  0  0  0  0  0  0  0
   -2.6797   -0.6111   -0.0048 C   0  0  0  0  0  0  0  0  0  0  0  0
   -4.8377   -0.3228    0.0652 H   0  0  0  0  0  0  0  0  0  0  0  0
   -4.0557    0.7997   -0.7403 H   0  0  0  0  0  0  0  0  0  0  0  0
   -3.8274    0.9734    0.9342 H   0  0  0  0  0  0  0  0  0  0  0  0
   -1.4082    0.1932   -0.0657 C   0  0  0  0  0  0  0  0  0  0  0  0
   -2.6841   -1.3231   -0.8750 H   0  0  0  0  0  0  0  0  0  0  0  0
   -2.7335   -1.1830    0.8276 H   0  0  0  0  0  0  0  0  0  0  0  0
   -0.1887   -0.6941    0.0914 C   0  0  0  0  0  0  0  0  0  0  0  0
   -1.4454    0.8047    0.7033 H   0  0  0  0  0  0  0  0  0  0  0  0
   -1.3674    0.8692   -1.0031 H   0  0  0  0  0  0  0  0  0  0  0  0
   -0.2005   -1.2879    0.9935 H   0  0  0  0  0  0  0  0  0  0  0  0
    0.7271   -0.0991    0.1858 H   0  0  0  0  0  0  0  0  0  0  0  0
   -0.0357   -1.4387   -0.7973 H   0  0  0  0  0  0  0  0  0  0  0  0
  1  5  1  0  0  0  0
  2  1  1  0  0  0  0
  2  8  1  0  0  0  0
  3  1  1  0  0  0  0
  4  1  1  0  0  0  0
  6  2  1  0  0  0  0
  6  9  1  0  0  0  0
  6 10  1  0  0  0  0
  7  2  1  0  0  0  0
  9 13  1  0  0  0  0
  9 12  1  0  0  0  0
 11  6  1  0  0  0  0
 14  9  1  0  0  0  0
M  END
$$$$
