14
butane_opt
C  -3.952627   0.275561   0.007264
C  -2.688512  -0.632880   0.045775
H  -4.843295  -0.306137   0.064827
H  -3.945970   0.904365  -0.916728
H  -3.979261   0.930750   0.865840
C  -1.392547   0.173971   0.024781
H  -2.702907  -1.323367  -0.812509
H  -2.709455  -1.203100   0.888227
C  -0.175946  -0.683902   0.028792
H  -1.317347   0.871788   0.892180
H  -1.425767   0.823038  -0.849412
H  -0.129244  -1.355115   0.926510
H   0.726538  -0.081444  -0.067664
H  -0.186185  -1.323047  -0.821492
