14
butane_opt
C  -3.919176   0.247909   0.075619
C  -2.716162  -0.591824  -0.028840
H  -4.825174  -0.394894   0.074369
H  -4.037866   0.767952  -0.766588
H  -3.868394   1.005286   0.993897
C  -1.425302   0.193606  -0.062660
H  -2.817358  -1.183149  -0.799432
H  -2.601754  -1.270398   0.907562
C  -0.148877  -0.702290   0.096243
H  -1.527689   0.811617   0.692421
H  -1.365579   0.879637  -0.971865
H  -0.250010  -1.272053   0.962298
H   0.782254  -0.102985   0.203977
H   0.006549  -1.490155  -0.838423
