14
butane_opt
C  -3.956522   0.284853  -0.015544
C  -2.672988  -0.635710   0.047699
H  -4.874014  -0.293319   0.198516
H  -3.991020   1.065113  -0.990294
H  -3.917868   0.732239   0.709187
C  -1.404691   0.153553   0.065846
H  -2.639769  -1.274063  -0.773542
H  -2.640496  -1.222972   0.916115
C  -0.173211  -0.674692   0.009546
H  -1.339203   0.867592   0.995467
H  -1.401075   0.760449  -0.818673
H  -0.128701  -1.237459   0.819683
H   0.759046  -0.041563  -0.055591
H  -0.364111  -1.358393  -0.871344
