butane_opt
 OpenBabel08242015413D

 14 13  0  0  0  0  0  0  0  0999 V2000
   -3.9146    0.2435   -0.0244 C   0  0  0  0  0  0  0  0  0  0  0  0
   -2.7014   -0.6039    0.0918 C   0  0  0  0  0  0  0  0  0  0  0  0
   -4.9023   -0.3946    0.1145 H   0  0  0  0  0  0  0  0  0  0  0  0
   -3.9298    0.9420   -0.9617 H   0  0  0  0  0  0  0  0  0  0  0  0
   -3.9770    0.8560    0.7948 H   0  0  0  0  0  0  0  0  0  0  0  0
   -1.4352    0.2137    0.0313 C   0  0  0  0  0  0  0  0  0  0  0  0
   -2.7631   -1.2134   -0.7091 H   0  0  0  0  0  0  0  0  0  0  0  0
   -2.6990   -1.2982    0.9908 H   0  0  0  0  0  0  0  0  0  0  0  0
   -0.1489   -0.7154    0.0050 C   0  0  0  0  0  0  0  0  0  0  0  0
   -1.4401    0.8957    0.8921 H   0  0  0  0  0  0  0  0  0  0  0  0
   -1.4141    0.9124   -0.9007 H   0  0  0  0  0  0  0  0  0  0  0  0
   -0.1474   -1.0609    0.7607 H   0  0  0  0  0  0  0  0  0  0  0  0
    0.7551   -0.1442    0.2140 H   0  0  0  0  0  0  0  0  0  0  0  0
   -0.0922   -1.6444   -1.0371 H   0  0  0  0  0  0  0  0  0  0  0  0
  1  2  1  0  0  0  0
  1  3  1  0  0  0  0
  1  5  1  0  0  0  0
  2  8  1  0  0  0  0
  4  1  1  0  0  0  0
  6  2  1  0  0  0  0
  6 10  1  0  0  0  0
  7  2  1  0  0  0  0
  9  6  1  0  0  0  0
  9 13  1  0  0  0  0
  9 12  1  0  0  0  0
 11  6  1  0  0  0  0
 14  9  1  0  0  0  0
M  END
$$$$
