butane_opt
 OpenBabel08242015413D

 14 13  0  0  0  0  0  0  0  0999 V2000
   -3.9590    0.2729   -0.0206 C   0  0  0  0  0  0  0  0  0  0  0  0
   -2.7028   -0.6382    0.0641 C   0  0  0  0  0  0  0  0  0  0  0  0
   -4.8034   -0.2698    0.2773 H   0  0  0  0  0  0  0  0  0  0  0  0
   -4.0452    1.1258   -1.0439 H   0  0  0  0  0  0  0  0  0  0  0  0
   -4.0256    0.7649    0.6928 H   0  0  0  0  0  0  0  0  0  0  0  0
   -1.3842    0.1818    0.0711 C   0  0  0  0  0  0  0  0  0  0  0  0
   -2.7970   -1.3024   -0.7654 H   0  0  0  0  0  0  0  0  0  0  0  0
   -2.7610   -1.2262    0.9197 H   0  0  0  0  0  0  0  0  0  0  0  0
   -0.1584   -0.6903   -0.0126 C   0  0  0  0  0  0  0  0  0  0  0  0
   -1.2843    0.8816    0.9112 H   0  0  0  0  0  0  0  0  0  0  0  0
   -1.4344    0.7733   -0.8124 H   0  0  0  0  0  0  0  0  0  0  0  0
   -0.1384   -1.2172    0.8525 H   0  0  0  0  0  0  0  0  0  0  0  0
    0.7700   -0.0442    0.1217 H   0  0  0  0  0  0  0  0  0  0  0  0
   -0.0656   -1.4611   -0.9568 H   0  0  0  0  0  0  0  0  0  0  0  0
  1  2  1  0  0  0  0
  1  3  1  0  0  0  0
  1  5  1  0  0  0  0
  2  6  1  0  0  0  0
  2  8  1  0  0  0  0
  4  1  1  0  0  0  0
  6 10  1  0  0  0  0
  7  2  1  0  0  0  0
  9  6  1  0  0  0  0
  9 13  1  0  0  0  0
  9 12  1  0  0  0  0
 11  6  1  0  0  0  0
 14  9  1  0  0  0  0
M  END
$$$$
