14
butane_opt
C  -3.918080   0.242654   0.065374
C  -2.692373  -0.602138  -0.019252
H  -4.809102  -0.387354   0.123021
H  -4.077880   0.871363  -0.787948
H  -3.948327   0.977020   0.999269
C  -1.433290   0.199096  -0.059999
H  -2.823672  -1.209323  -0.818114
H  -2.642913  -1.302878   0.922895
C  -0.158891  -0.706509   0.082612
H  -1.465049   0.846662   0.763719
H  -1.308736   0.939420  -0.992097
H  -0.206664  -1.225982   0.907662
H   0.754347  -0.104551   0.325558
H  -0.044756  -1.487071  -0.841683
