14
butane_opt
C  -3.937717   0.256153   0.075040
C  -2.679651  -0.611073  -0.004841
H  -4.837702  -0.322827   0.065178
H  -4.055672   0.799683  -0.740320
H  -3.827444   0.973445   0.934239
C  -1.408249   0.193227  -0.065672
H  -2.684106  -1.323065  -0.875043
H  -2.733547  -1.183008   0.827593
C  -0.188663  -0.694078   0.091369
H  -1.445436   0.804705   0.703329
H  -1.367367   0.869250  -1.003087
H  -0.200465  -1.287871   0.993536
H   0.727088  -0.099065   0.185756
H  -0.035724  -1.438674  -0.797339
