butane_opt
 OpenBabel08242015413D

 14 13  0  0  0  0  0  0  0  0999 V2000
   -3.9181    0.2427    0.0654 C   0  0  0  0  0  0  0  0  0  0  0  0
   -2.6924   -0.6021   -0.0193 C   0  0  0  0  0  0  0  0  0  0  0  0
   -4.8091   -0.3874    0.1230 H   0  0  0  0  0  0  0  0  0  0  0  0
   -4.0779    0.8714   -0.7879 H   0  0  0  0  0  0  0  0  0  0  0  0
   -3.9483    0.9770    0.9993 H   0  0  0  0  0  0  0  0  0  0  0  0
   -1.4333    0.1991   -0.0600 C   0  0  0  0  0  0  0  0  0  0  0  0
   -2.8237   -1.2093   -0.8181 H   0  0  0  0  0  0  0  0  0  0  0  0
   -2.6429   -1.3029    0.9229 H   0  0  0  0  0  0  0  0  0  0  0  0
   -0.1589   -0.7065    0.0826 C   0  0  0  0  0  0  0  0  0  0  0  0
   -1.4650    0.8467    0.7637 H   0  0  0  0  0  0  0  0  0  0  0  0
   -1.3087    0.9394   -0.9921 H   0  0  0  0  0  0  0  0  0  0  0  0
   -0.2067   -1.2260    0.9077 H   0  0  0  0  0  0  0  0  0  0  0  0
    0.7543   -0.1046    0.3256 H   0  0  0  0  0  0  0  0  0  0  0  0
   -0.0448   -1.4871   -0.8417 H   0  0  0  0  0  0  0  0  0  0  0  0
  1  3  1  0  0  0  0
  1  5  1  0  0  0  0
  2  1  1  0  0  0  0
  2  8  1  0  0  0  0
  4  1  1  0  0  0  0
  6  2  1  0  0  0  0
  6  9  1  0  0  0  0
  6 10  1  0  0  0  0
  7  2  1  0  0  0  0
  9 13  1  0  0  0  0
  9 12  1  0  0  0  0
 11  6  1  0  0  0  0
 14  9  1  0  0  0  0
M  END
$$$$
