butane_opt
 OpenBabel08242015413D

 14 13  0  0  0  0  0  0  0  0999 V2000
   -3.9298    0.2803    0.0543 C   0  0  0  0  0  0  0  0  0  0  0  0
   -2.6906   -0.6169   -0.0191 C   0  0  0  0  0  0  0  0  0  0  0  0
   -4.8526   -0.2934    0.1074 H   0  0  0  0  0  0  0  0  0  0  0  0
   -3.9973    0.7646   -0.7503 H   0  0  0  0  0  0  0  0  0  0  0  0
   -3.9127    1.0161    0.9706 H   0  0  0  0  0  0  0  0  0  0  0  0
   -1.4023    0.1513   -0.0256 C   0  0  0  0  0  0  0  0  0  0  0  0
   -2.7531   -1.3281   -0.9278 H   0  0  0  0  0  0  0  0  0  0  0  0
   -2.7079   -1.1619    0.8347 H   0  0  0  0  0  0  0  0  0  0  0  0
   -0.1833   -0.6836    0.0726 C   0  0  0  0  0  0  0  0  0  0  0  0
   -1.3950    0.8791    0.8134 H   0  0  0  0  0  0  0  0  0  0  0  0
   -1.3798    0.7347   -0.9045 H   0  0  0  0  0  0  0  0  0  0  0  0
   -0.1860   -1.4972    1.1220 H   0  0  0  0  0  0  0  0  0  0  0  0
    0.7718   -0.0491   -0.1311 H   0  0  0  0  0  0  0  0  0  0  0  0
   -0.1495   -1.1048   -0.6449 H   0  0  0  0  0  0  0  0  0  0  0  0
  1  3  1  0  0  0  0
  1  5  1  0  0  0  0
  2  1  1  0  0  0  0
  2  8  1  0  0  0  0
  4  1  1  0  0  0  0
  6  2  1  0  0  0  0
  6  9  1  0  0  0  0
  6 10  1  0  0  0  0
  7  2  1  0  0  0  0
  9 12  1  0  0  0  0
 11  6  1  0  0  0  0
 13  9  1  0  0  0  0
 14  9  1  0  0  0  0
M  END
$$$$
