butane_opt
 OpenBabel08242015413D

 14 13  0  0  0  0  0  0  0  0999 V2000
   -3.9565    0.2849   -0.0155 C   0  0  0  0  0  0  0  0  0  0  0  0
   -2.6730   -0.6357    0.0477 C   0  0  0  0  0  0  0  0  0  0  0  0
   -4.8740   -0.2933    0.1985 H   0  0  0  0  0  0  0  0  0  0  0  0
   -3.9910    1.0651   -0.9903 H   0  0  0  0  0  0  0  0  0  0  0  0
   -3.9179    0.7322    0.7092 H   0  0  0  0  0  0  0  0  0  0  0  0
   -1.4047    0.1536    0.0658 C   0  0  0  0  0  0  0  0  0  0  0  0
   -2.6398   -1.2741   -0.7735 H   0  0  0  0  0  0  0  0  0  0  0  0
   -2.6405   -1.2230    0.9161 H   0  0  0  0  0  0  0  0  0  0  0  0
   -0.1732   -0.6747    0.0095 C   0  0  0  0  0  0  0  0  0  0  0  0
   -1.3392    0.8676    0.9955 H   0  0  0  0  0  0  0  0  0  0  0  0
   -1.4011    0.7604   -0.8187 H   0  0  0  0  0  0  0  0  0  0  0  0
   -0.1287   -1.2375    0.8197 H   0  0  0  0  0  0  0  0  0  0  0  0
    0.7590   -0.0416   -0.0556 H   0  0  0  0  0  0  0  0  0  0  0  0
   -0.3641   -1.3584   -0.8713 H   0  0  0  0  0  0  0  0  0  0  0  0
  1  2  1  0  0  0  0
  1  3  1  0  0  0  0
  1  5  1  0  0  0  0
  2  6  1  0  0  0  0
  2  8  1  0  0  0  0
  4  1  1  0  0  0  0
  6 10  1  0  0  0  0
  7  2  1  0  0  0  0
  9  6  1  0  0  0  0
  9 12  1  0  0  0  0
 11  6  1  0  0  0  0
 13  9  1  0  0  0  0
 14  9  1  0  0  0  0
M  END
$$$$
