butane_opt
 OpenBabel08242015413D

 14 13  0  0  0  0  0  0  0  0999 V2000
   -3.9498    0.2701   -0.0417 C   0  0  0  0  0  0  0  0  0  0  0  0
   -2.6869   -0.6170    0.0728 C   0  0  0  0  0  0  0  0  0  0  0  0
   -4.8058   -0.2676    0.2092 H   0  0  0  0  0  0  0  0  0  0  0  0
   -4.0288    1.0041   -0.9963 H   0  0  0  0  0  0  0  0  0  0  0  0
   -3.8711    0.7505    0.7037 H   0  0  0  0  0  0  0  0  0  0  0  0
   -1.4136    0.1768    0.0840 C   0  0  0  0  0  0  0  0  0  0  0  0
   -2.6458   -1.2837   -0.7629 H   0  0  0  0  0  0  0  0  0  0  0  0
   -2.7419   -1.2681    0.9863 H   0  0  0  0  0  0  0  0  0  0  0  0
   -0.1638   -0.6966   -0.0102 C   0  0  0  0  0  0  0  0  0  0  0  0
   -1.3660    0.9605    0.9668 H   0  0  0  0  0  0  0  0  0  0  0  0
   -1.3788    0.6918   -0.7562 H   0  0  0  0  0  0  0  0  0  0  0  0
   -0.1660   -1.2646    0.8332 H   0  0  0  0  0  0  0  0  0  0  0  0
    0.7921   -0.0105   -0.1362 H   0  0  0  0  0  0  0  0  0  0  0  0
   -0.2475   -1.3694   -0.8916 H   0  0  0  0  0  0  0  0  0  0  0  0
  1  2  1  0  0  0  0
  1  3  1  0  0  0  0
  1  5  1  0  0  0  0
  2  6  1  0  0  0  0
  2  8  1  0  0  0  0
  4  1  1  0  0  0  0
  6 10  1  0  0  0  0
  7  2  1  0  0  0  0
  9  6  1  0  0  0  0
  9 12  1  0  0  0  0
 11  6  1  0  0  0  0
 13  9  1  0  0  0  0
 14  9  1  0  0  0  0
M  END
$$$$
