14
butane_opt
C  -3.919140   0.264271   0.044036
C  -2.686043  -0.625440  -0.008535
H  -4.822051  -0.290603   0.191527
H  -4.114498   1.000076  -0.939335
H  -3.868482   0.849016   0.890361
C  -1.408101   0.167694   0.003771
H  -2.796343  -1.283572  -0.913389
H  -2.629218  -1.246546   0.872141
C  -0.185571  -0.679664   0.060564
H  -1.507187   0.857607   0.864723
H  -1.386502   0.883055  -0.950843
H  -0.143065  -1.283586   0.958197
H   0.775911  -0.061305   0.038604
H  -0.153052  -1.409575  -0.797236
