butane_opt
 OpenBabel08242015413D

 14 13  0  0  0  0  0  0  0  0999 V2000
   -3.9696    0.2614    0.0585 C   0  0  0  0  0  0  0  0  0  0  0  0
   -2.7126   -0.6133   -0.0327 C   0  0  0  0  0  0  0  0  0  0  0  0
   -4.8305   -0.2735    0.2298 H   0  0  0  0  0  0  0  0  0  0  0  0
   -4.1187    0.8450   -0.8038 H   0  0  0  0  0  0  0  0  0  0  0  0
   -3.9062    0.9316    0.9507 H   0  0  0  0  0  0  0  0  0  0  0  0
   -1.3905    0.1812   -0.0342 C   0  0  0  0  0  0  0  0  0  0  0  0
   -2.7028   -1.3000   -0.8863 H   0  0  0  0  0  0  0  0  0  0  0  0
   -2.6760   -1.2479    0.8625 H   0  0  0  0  0  0  0  0  0  0  0  0
   -0.1378   -0.6870    0.0725 C   0  0  0  0  0  0  0  0  0  0  0  0
   -1.4033    0.8488    0.8323 H   0  0  0  0  0  0  0  0  0  0  0  0
   -1.3545    0.8632   -0.9168 H   0  0  0  0  0  0  0  0  0  0  0  0
   -0.2094   -1.4002    1.0291 H   0  0  0  0  0  0  0  0  0  0  0  0
    0.7868   -0.1018    0.0919 H   0  0  0  0  0  0  0  0  0  0  0  0
   -0.0800   -1.3377   -0.7085 H   0  0  0  0  0  0  0  0  0  0  0  0
  1  3  1  0  0  0  0
  1  5  1  0  0  0  0
  2  1  1  0  0  0  0
  2  8  1  0  0  0  0
  4  1  1  0  0  0  0
  6  2  1  0  0  0  0
  6  9  1  0  0  0  0
  6 10  1  0  0  0  0
  7  2  1  0  0  0  0
  9 13  1  0  0  0  0
  9 12  1  0  0  0  0
 11  6  1  0  0  0  0
 14  9  1  0  0  0  0
M  END
$$$$
