14
butane_opt
C  -3.939994   0.286235  -0.017520
C  -2.679350  -0.643083   0.059113
H  -4.845304  -0.274606   0.146910
H  -4.029412   1.040448  -1.050597
H  -3.943271   0.774416   0.720021
C  -1.399025   0.162204   0.068444
H  -2.590263  -1.224183  -0.716791
H  -2.732483  -1.334521   0.993672
C  -0.183883  -0.652251  -0.010111
H  -1.412054   0.881901   0.978670
H  -1.387783   0.674881  -0.747544
H  -0.120027  -1.280510   0.867627
H   0.718498  -0.105923   0.002024
H  -0.266401  -1.449127  -0.974921
