14
butane_opt
C  -3.958003   0.282444   0.090341
C  -2.697849  -0.626047  -0.056104
H  -4.907499  -0.335159   0.280110
H  -4.154269   0.979349  -0.803570
H  -3.892453   0.845935   0.836291
C  -1.374541   0.161442  -0.042566
H  -2.731759  -1.344127  -0.909108
H  -2.656745  -1.181167   0.760193
C  -0.167515  -0.682434   0.105645
H  -1.449436   0.820195   0.753770
H  -1.287309   0.823901  -0.973285
H  -0.218571  -1.272956   1.008164
H   0.732114  -0.094152   0.041833
H  -0.080031  -1.345438  -0.739443
