14
butane_opt
C  -3.958737   0.261116   0.001426
C  -2.701288  -0.634574   0.054245
H  -4.885176  -0.327253   0.095249
H  -4.031418   1.046543  -0.949966
H  -4.061832   0.838291   0.754542
C  -1.393535   0.189897   0.022526
H  -2.639813  -1.215945  -0.660151
H  -2.696692  -1.287314   0.984865
C  -0.153073  -0.684299   0.010613
H  -1.370005   0.962913   0.946238
H  -1.373097   0.729982  -0.802242
H  -0.164220  -1.182524   0.837561
H   0.714913  -0.126239   0.069174
H  -0.028591  -1.511492  -0.939567
