butane_opt
 OpenBabel08242015413D

 14 13  0  0  0  0  0  0  0  0999 V2000
   -3.9580    0.2824    0.0903 C   0  0  0  0  0  0  0  0  0  0  0  0
   -2.6978   -0.6260   -0.0561 C   0  0  0  0  0  0  0  0  0  0  0  0
   -4.9075   -0.3352    0.2801 H   0  0  0  0  0  0  0  0  0  0  0  0
   -4.1543    0.9793   -0.8036 H   0  0  0  0  0  0  0  0  0  0  0  0
   -3.8925    0.8459    0.8363 H   0  0  0  0  0  0  0  0  0  0  0  0
   -1.3745    0.1614   -0.0426 C   0  0  0  0  0  0  0  0  0  0  0  0
   -2.7318   -1.3441   -0.9091 H   0  0  0  0  0  0  0  0  0  0  0  0
   -2.6567   -1.1812    0.7602 H   0  0  0  0  0  0  0  0  0  0  0  0
   -0.1675   -0.6824    0.1056 C   0  0  0  0  0  0  0  0  0  0  0  0
   -1.4494    0.8202    0.7538 H   0  0  0  0  0  0  0  0  0  0  0  0
   -1.2873    0.8239   -0.9733 H   0  0  0  0  0  0  0  0  0  0  0  0
   -0.2186   -1.2730    1.0082 H   0  0  0  0  0  0  0  0  0  0  0  0
    0.7321   -0.0942    0.0418 H   0  0  0  0  0  0  0  0  0  0  0  0
   -0.0800   -1.3454   -0.7394 H   0  0  0  0  0  0  0  0  0  0  0  0
  1  3  1  0  0  0  0
  1  5  1  0  0  0  0
  2  6  1  0  0  0  0
  2  1  1  0  0  0  0
  2  8  1  0  0  0  0
  4  1  1  0  0  0  0
  6  9  1  0  0  0  0
  6 10  1  0  0  0  0
  7  2  1  0  0  0  0
  9 12  1  0  0  0  0
 11  6  1  0  0  0  0
 13  9  1  0  0  0  0
 14  9  1  0  0  0  0
M  END
$$$$
