butane_opt
 OpenBabel08242015413D

 14 13  0  0  0  0  0  0  0  0999 V2000
   -3.9263    0.2520   -0.0111 C   0  0  0  0  0  0  0  0  0  0  0  0
   -2.7135   -0.5786    0.0372 C   0  0  0  0  0  0  0  0  0  0  0  0
   -4.9028   -0.4129    0.2595 H   0  0  0  0  0  0  0  0  0  0  0  0
   -3.9427    0.9750   -0.9880 H   0  0  0  0  0  0  0  0  0  0  0  0
   -3.8484    0.8119    0.8349 H   0  0  0  0  0  0  0  0  0  0  0  0
   -1.4179    0.2001    0.0309 C   0  0  0  0  0  0  0  0  0  0  0  0
   -2.8038   -1.2697   -0.7690 H   0  0  0  0  0  0  0  0  0  0  0  0
   -2.7655   -1.3031    1.0097 H   0  0  0  0  0  0  0  0  0  0  0  0
   -0.1461   -0.7180    0.0261 C   0  0  0  0  0  0  0  0  0  0  0  0
   -1.4476    0.9333    0.9112 H   0  0  0  0  0  0  0  0  0  0  0  0
   -1.3941    0.7619   -0.8172 H   0  0  0  0  0  0  0  0  0  0  0  0
   -0.0841   -1.2382    0.8571 H   0  0  0  0  0  0  0  0  0  0  0  0
    0.7749   -0.1053    0.0448 H   0  0  0  0  0  0  0  0  0  0  0  0
   -0.1632   -1.4835   -0.9220 H   0  0  0  0  0  0  0  0  0  0  0  0
  1  2  1  0  0  0  0
  1  3  1  0  0  0  0
  1  5  1  0  0  0  0
  2  8  1  0  0  0  0
  4  1  1  0  0  0  0
  6  2  1  0  0  0  0
  6 10  1  0  0  0  0
  7  2  1  0  0  0  0
  9  6  1  0  0  0  0
  9 13  1  0  0  0  0
  9 12  1  0  0  0  0
 11  6  1  0  0  0  0
 14  9  1  0  0  0  0
M  END
$$$$
