butane_opt
 OpenBabel08242015413D

 14 13  0  0  0  0  0  0  0  0999 V2000
   -3.9378    0.2736    0.0564 C   0  0  0  0  0  0  0  0  0  0  0  0
   -2.6880   -0.6402    0.0088 C   0  0  0  0  0  0  0  0  0  0  0  0
   -4.7330   -0.2436   -0.0192 H   0  0  0  0  0  0  0  0  0  0  0  0
   -4.0404    0.8252   -0.8058 H   0  0  0  0  0  0  0  0  0  0  0  0
   -3.9158    1.0854    1.0177 H   0  0  0  0  0  0  0  0  0  0  0  0
   -1.3936    0.1607   -0.0460 C   0  0  0  0  0  0  0  0  0  0  0  0
   -2.7269   -1.2020   -0.7886 H   0  0  0  0  0  0  0  0  0  0  0  0
   -2.6597   -1.2808    0.8864 H   0  0  0  0  0  0  0  0  0  0  0  0
   -0.1966   -0.6750    0.0635 C   0  0  0  0  0  0  0  0  0  0  0  0
   -1.3847    0.7696    0.7951 H   0  0  0  0  0  0  0  0  0  0  0  0
   -1.3722    0.8468   -1.0015 H   0  0  0  0  0  0  0  0  0  0  0  0
   -0.3113   -1.2567    0.9655 H   0  0  0  0  0  0  0  0  0  0  0  0
    0.7761   -0.0365    0.2446 H   0  0  0  0  0  0  0  0  0  0  0  0
   -0.0806   -1.3967   -0.8423 H   0  0  0  0  0  0  0  0  0  0  0  0
  1  5  1  0  0  0  0
  2  1  1  0  0  0  0
  2  8  1  0  0  0  0
  3  1  1  0  0  0  0
  4  1  1  0  0  0  0
  6  2  1  0  0  0  0
  6  9  1  0  0  0  0
  6 10  1  0  0  0  0
  7  2  1  0  0  0  0
  9 13  1  0  0  0  0
  9 12  1  0  0  0  0
 11  6  1  0  0  0  0
 14  9  1  0  0  0  0
M  END
$$$$
