14
butane_opt
C  -3.950043   0.241588   0.070976
C  -2.717360  -0.596688  -0.002385
H  -4.884988  -0.370115  -0.141897
H  -3.883244   0.697060  -0.738136
H  -4.035534   1.125644   1.071584
C  -1.401519   0.216858  -0.047134
H  -2.803862  -1.339583  -0.894861
H  -2.706917  -1.238007   0.906155
C  -0.146190  -0.703181   0.062003
H  -1.490119   0.890616   0.779432
H  -1.359238   0.830672  -0.960998
H  -0.013708  -1.556741   1.137685
H   0.729503  -0.190831  -0.004577
H   0.002647  -1.223560  -0.677924
