butane_opt
 OpenBabel08242015413D

 14 13  0  0  0  0  0  0  0  0999 V2000
   -3.9711    0.2721    0.0620 C   0  0  0  0  0  0  0  0  0  0  0  0
   -2.6820   -0.6094   -0.0148 C   0  0  0  0  0  0  0  0  0  0  0  0
   -4.9005   -0.3535    0.2031 H   0  0  0  0  0  0  0  0  0  0  0  0
   -4.0969    0.9789   -0.8982 H   0  0  0  0  0  0  0  0  0  0  0  0
   -3.9090    0.8471    0.9219 H   0  0  0  0  0  0  0  0  0  0  0  0
   -1.3881    0.1693   -0.0252 C   0  0  0  0  0  0  0  0  0  0  0  0
   -2.7369   -1.4218   -0.9638 H   0  0  0  0  0  0  0  0  0  0  0  0
   -2.6639   -1.2168    0.8062 H   0  0  0  0  0  0  0  0  0  0  0  0
   -0.1676   -0.6817    0.0920 C   0  0  0  0  0  0  0  0  0  0  0  0
   -1.4709    0.8147    0.7975 H   0  0  0  0  0  0  0  0  0  0  0  0
   -1.3185    0.8279   -0.9567 H   0  0  0  0  0  0  0  0  0  0  0  0
   -0.0964   -1.3059    0.9713 H   0  0  0  0  0  0  0  0  0  0  0  0
    0.7724   -0.0630   -0.0261 H   0  0  0  0  0  0  0  0  0  0  0  0
   -0.1036   -1.3645   -0.7977 H   0  0  0  0  0  0  0  0  0  0  0  0
  1  3  1  0  0  0  0
  1  5  1  0  0  0  0
  2  1  1  0  0  0  0
  2  8  1  0  0  0  0
  4  1  1  0  0  0  0
  6  2  1  0  0  0  0
  6  9  1  0  0  0  0
  6 10  1  0  0  0  0
  7  2  1  0  0  0  0
  9 12  1  0  0  0  0
 11  6  1  0  0  0  0
 13  9  1  0  0  0  0
 14  9  1  0  0  0  0
M  END
$$$$
