butane_opt
 OpenBabel08242015413D

 14 13  0  0  0  0  0  0  0  0999 V2000
   -3.9345    0.2705    0.0391 C   0  0  0  0  0  0  0  0  0  0  0  0
   -2.6946   -0.6424    0.0181 C   0  0  0  0  0  0  0  0  0  0  0  0
   -4.8177   -0.2631   -0.1257 H   0  0  0  0  0  0  0  0  0  0  0  0
   -3.9419    0.6865   -0.7148 H   0  0  0  0  0  0  0  0  0  0  0  0
   -3.9874    1.2229    1.0825 H   0  0  0  0  0  0  0  0  0  0  0  0
   -1.4193    0.1793   -0.0320 C   0  0  0  0  0  0  0  0  0  0  0  0
   -2.7140   -1.2921   -0.8181 H   0  0  0  0  0  0  0  0  0  0  0  0
   -2.6924   -1.2621    0.9052 H   0  0  0  0  0  0  0  0  0  0  0  0
   -0.1653   -0.6873    0.0609 C   0  0  0  0  0  0  0  0  0  0  0  0
   -1.4243    0.8343    0.7503 H   0  0  0  0  0  0  0  0  0  0  0  0
   -1.3508    0.7939   -0.9173 H   0  0  0  0  0  0  0  0  0  0  0  0
   -0.1796   -1.3712    1.0675 H   0  0  0  0  0  0  0  0  0  0  0  0
    0.7804   -0.0591   -0.1089 H   0  0  0  0  0  0  0  0  0  0  0  0
   -0.1372   -1.1997   -0.6845 H   0  0  0  0  0  0  0  0  0  0  0  0
  1  5  1  0  0  0  0
  2  1  1  0  0  0  0
  2  8  1  0  0  0  0
  3  1  1  0  0  0  0
  4  1  1  0  0  0  0
  6  2  1  0  0  0  0
  6  9  1  0  0  0  0
  6 10  1  0  0  0  0
  7  2  1  0  0  0  0
  9 12  1  0  0  0  0
 11  6  1  0  0  0  0
 13  9  1  0  0  0  0
 14  9  1  0  0  0  0
M  END
$$$$
