14
butane_opt
C  -3.937761   0.273574   0.056372
C  -2.687998  -0.640169   0.008833
H  -4.733018  -0.243553  -0.019198
H  -4.040438   0.825152  -0.805781
H  -3.915799   1.085432   1.017728
C  -1.393646   0.160701  -0.046037
H  -2.726873  -1.202033  -0.788605
H  -2.659743  -1.280839   0.886367
C  -0.196592  -0.675005   0.063505
H  -1.384707   0.769601   0.795139
H  -1.372250   0.846811  -1.001484
H  -0.311258  -1.256657   0.965460
H   0.776088  -0.036522   0.244580
H  -0.080630  -1.396685  -0.842283
