14
butane_opt
C  -3.960884   0.253787   0.003235
C  -2.692897  -0.610648   0.036468
H  -4.849371  -0.305522   0.106097
H  -4.069779   0.915493  -0.917673
H  -3.896988   0.807849   0.775374
C  -1.401935   0.203003   0.043697
H  -2.742695  -1.228327  -0.772802
H  -2.743406  -1.303138   0.988203
C  -0.145885  -0.695065   0.014297
H  -1.390133   0.903280   0.850481
H  -1.384713   0.803417  -0.824078
H  -0.108578  -1.276682   0.895880
H   0.666525  -0.176418   0.038836
H  -0.078666  -1.436754  -0.895608
