14
butane_opt
C  -3.943958   0.235572   0.055331
C  -2.720647  -0.602104  -0.017932
H  -4.814645  -0.346287   0.263407
H  -4.135669   0.960097  -0.877994
H  -3.919599   0.827791   0.823650
C  -1.409475   0.218041  -0.024652
H  -2.823259  -1.287750  -0.897913
H  -2.593620  -1.178750   0.775233
C  -0.129889  -0.717103   0.074966
H  -1.442200   0.972541   0.882227
H  -1.357502   0.787706  -0.870121
H  -0.125670  -1.355903   1.022429
H   0.701087  -0.175285  -0.025336
H  -0.044272  -1.300132  -0.725697
