14
butane_opt
C  -3.966822   0.275714   0.053572
C  -2.687953  -0.642002   0.002485
H  -4.851455  -0.262077   0.125643
H  -4.043281   0.849790  -0.808398
H  -3.997648   0.962196   0.967784
C  -1.402760   0.179589  -0.051283
H  -2.755924  -1.250543  -0.797621
H  -2.621575  -1.358403   0.897370
C  -0.144818  -0.685981   0.074105
H  -1.414327   0.835450   0.799880
H  -1.283675   0.905382  -1.015191
H  -0.279887  -1.116361   0.900957
H   0.735110  -0.081922   0.285778
H  -0.078759  -1.492402  -0.878346
