butane_opt
 OpenBabel08242015413D

 14 13  0  0  0  0  0  0  0  0999 V2000
   -3.9333    0.2646    0.0617 C   0  0  0  0  0  0  0  0  0  0  0  0
   -2.6916   -0.5984    0.0249 C   0  0  0  0  0  0  0  0  0  0  0  0
   -4.8160   -0.3603   -0.2502 H   0  0  0  0  0  0  0  0  0  0  0  0
   -3.8087    0.6385   -0.6616 H   0  0  0  0  0  0  0  0  0  0  0  0
   -4.0592    1.0814    1.0143 H   0  0  0  0  0  0  0  0  0  0  0  0
   -1.4107    0.1826   -0.0439 C   0  0  0  0  0  0  0  0  0  0  0  0
   -2.7981   -1.3185   -0.8547 H   0  0  0  0  0  0  0  0  0  0  0  0
   -2.7006   -1.1860    0.8899 H   0  0  0  0  0  0  0  0  0  0  0  0
   -0.1590   -0.7060    0.0717 C   0  0  0  0  0  0  0  0  0  0  0  0
   -1.4089    0.8056    0.7102 H   0  0  0  0  0  0  0  0  0  0  0  0
   -1.4219    0.9099   -1.0057 H   0  0  0  0  0  0  0  0  0  0  0  0
   -0.2471   -1.3631    1.0177 H   0  0  0  0  0  0  0  0  0  0  0  0
    0.7874   -0.0887   -0.0273 H   0  0  0  0  0  0  0  0  0  0  0  0
   -0.2072   -1.3141   -0.7394 H   0  0  0  0  0  0  0  0  0  0  0  0
  1  5  1  0  0  0  0
  2  1  1  0  0  0  0
  2  8  1  0  0  0  0
  3  1  1  0  0  0  0
  4  1  1  0  0  0  0
  6  2  1  0  0  0  0
  6  9  1  0  0  0  0
  6 10  1  0  0  0  0
  7  2  1  0  0  0  0
  9 12  1  0  0  0  0
 11  6  1  0  0  0  0
 13  9  1  0  0  0  0
 14  9  1  0  0  0  0
M  END
$$$$
