butane_opt
 OpenBabel08242015413D

 14 13  0  0  0  0  0  0  0  0999 V2000
   -3.9668    0.2757    0.0536 C   0  0  0  0  0  0  0  0  0  0  0  0
   -2.6880   -0.6420    0.0025 C   0  0  0  0  0  0  0  0  0  0  0  0
   -4.8515   -0.2621    0.1256 H   0  0  0  0  0  0  0  0  0  0  0  0
   -4.0433    0.8498   -0.8084 H   0  0  0  0  0  0  0  0  0  0  0  0
   -3.9976    0.9622    0.9678 H   0  0  0  0  0  0  0  0  0  0  0  0
   -1.4028    0.1796   -0.0513 C   0  0  0  0  0  0  0  0  0  0  0  0
   -2.7559   -1.2505   -0.7976 H   0  0  0  0  0  0  0  0  0  0  0  0
   -2.6216   -1.3584    0.8974 H   0  0  0  0  0  0  0  0  0  0  0  0
   -0.1448   -0.6860    0.0741 C   0  0  0  0  0  0  0  0  0  0  0  0
   -1.4143    0.8355    0.7999 H   0  0  0  0  0  0  0  0  0  0  0  0
   -1.2837    0.9054   -1.0152 H   0  0  0  0  0  0  0  0  0  0  0  0
   -0.2799   -1.1164    0.9010 H   0  0  0  0  0  0  0  0  0  0  0  0
    0.7351   -0.0819    0.2858 H   0  0  0  0  0  0  0  0  0  0  0  0
   -0.0788   -1.4924   -0.8783 H   0  0  0  0  0  0  0  0  0  0  0  0
  1  3  1  0  0  0  0
  1  5  1  0  0  0  0
  2  1  1  0  0  0  0
  2  8  1  0  0  0  0
  4  1  1  0  0  0  0
  6  2  1  0  0  0  0
  6  9  1  0  0  0  0
  6 10  1  0  0  0  0
  7  2  1  0  0  0  0
  9 13  1  0  0  0  0
  9 12  1  0  0  0  0
 11  6  1  0  0  0  0
 14  9  1  0  0  0  0
M  END
$$$$
