14
butane_opt
C  -3.970172   0.278600  -0.018313
C  -2.716243  -0.629300   0.039965
H  -4.856262  -0.278444   0.274143
H  -4.104294   1.110136  -1.057112
H  -3.914555   0.730705   0.712227
C  -1.391375   0.154413   0.067127
H  -2.677990  -1.217855  -0.766008
H  -2.637214  -1.339817   0.998624
C  -0.139615  -0.670961  -0.002721
H  -1.382437   0.937865   1.043162
H  -1.322576   0.729061  -0.771699
H  -0.136932  -1.196242   0.814546
H   0.762262  -0.105418  -0.015185
H  -0.147416  -1.425222  -0.874230
