14
butane_opt
C  -3.939910   0.274808   0.055210
C  -2.695189  -0.637979  -0.013821
H  -4.836903  -0.333430  -0.019249
H  -3.975271   0.797939  -0.766439
H  -3.938324   0.976909   0.982562
C  -1.409559   0.193356  -0.013538
H  -2.669346  -1.336905  -0.878105
H  -2.603182  -1.202504   0.809387
C  -0.179075  -0.687119   0.067771
H  -1.472469   0.894180   0.867887
H  -1.316464   0.770899  -0.915229
H  -0.078315  -1.518053   1.079255
H   0.704038  -0.100750  -0.231102
H  -0.160249  -1.126674  -0.621434
