14
butane_opt
C  -3.962270   0.237079  -0.023169
C  -2.723013  -0.597281   0.061168
H  -4.815324  -0.331191   0.199036
H  -3.948802   1.035746  -1.017403
H  -3.936015   0.737149   0.720466
C  -1.391088   0.213140   0.073367
H  -2.720776  -1.203014  -0.777378
H  -2.671013  -1.247680   0.967360
C  -0.150727  -0.716839  -0.003705
H  -1.358707   0.944415   0.960845
H  -1.361249   0.845651  -0.809230
H  -0.012397  -1.254897   0.811703
H   0.664900  -0.190753   0.015527
H  -0.127265  -1.455285  -0.948761
