14
butane_opt
C  -3.945009   0.272477   0.027319
C  -2.679335  -0.633891   0.032697
H  -4.823594  -0.263853  -0.060095
H  -3.905671   0.824365  -0.815765
H  -3.997102   1.065869   1.003049
C  -1.399515   0.170607   0.005017
H  -2.599118  -1.462076  -0.893367
H  -2.691705  -1.217278   0.854244
C  -0.192319  -0.679295   0.048983
H  -1.372306   0.857001   0.847419
H  -1.402696   0.841298  -0.949136
H  -0.135189  -1.410029   1.006515
H   0.734141  -0.095821  -0.207036
H  -0.240564  -1.152328  -0.680349
