butane_opt
 OpenBabel08242015413D

 14 13  0  0  0  0  0  0  0  0999 V2000
   -3.9399    0.2748    0.0552 C   0  0  0  0  0  0  0  0  0  0  0  0
   -2.6952   -0.6380   -0.0138 C   0  0  0  0  0  0  0  0  0  0  0  0
   -4.8369   -0.3334   -0.0192 H   0  0  0  0  0  0  0  0  0  0  0  0
   -3.9753    0.7979   -0.7664 H   0  0  0  0  0  0  0  0  0  0  0  0
   -3.9383    0.9769    0.9826 H   0  0  0  0  0  0  0  0  0  0  0  0
   -1.4096    0.1934   -0.0135 C   0  0  0  0  0  0  0  0  0  0  0  0
   -2.6693   -1.3369   -0.8781 H   0  0  0  0  0  0  0  0  0  0  0  0
   -2.6032   -1.2025    0.8094 H   0  0  0  0  0  0  0  0  0  0  0  0
   -0.1791   -0.6871    0.0678 C   0  0  0  0  0  0  0  0  0  0  0  0
   -1.4725    0.8942    0.8679 H   0  0  0  0  0  0  0  0  0  0  0  0
   -1.3165    0.7709   -0.9152 H   0  0  0  0  0  0  0  0  0  0  0  0
   -0.0783   -1.5181    1.0793 H   0  0  0  0  0  0  0  0  0  0  0  0
    0.7040   -0.1008   -0.2311 H   0  0  0  0  0  0  0  0  0  0  0  0
   -0.1602   -1.1267   -0.6214 H   0  0  0  0  0  0  0  0  0  0  0  0
  1  5  1  0  0  0  0
  2  6  1  0  0  0  0
  2  1  1  0  0  0  0
  2  8  1  0  0  0  0
  3  1  1  0  0  0  0
  4  1  1  0  0  0  0
  6  9  1  0  0  0  0
  6 10  1  0  0  0  0
  7  2  1  0  0  0  0
  9 12  1  0  0  0  0
 11  6  1  0  0  0  0
 13  9  1  0  0  0  0
 14  9  1  0  0  0  0
M  END
$$$$
