butane_opt
 OpenBabel08242015413D

 14 13  0  0  0  0  0  0  0  0999 V2000
   -3.9666    0.2701    0.0696 C   0  0  0  0  0  0  0  0  0  0  0  0
   -2.6938   -0.6363   -0.0073 C   0  0  0  0  0  0  0  0  0  0  0  0
   -4.7519   -0.2109    0.1138 H   0  0  0  0  0  0  0  0  0  0  0  0
   -4.0413    0.8057   -0.7434 H   0  0  0  0  0  0  0  0  0  0  0  0
   -4.0131    1.0267    0.9971 H   0  0  0  0  0  0  0  0  0  0  0  0
   -1.3889    0.1714   -0.0655 C   0  0  0  0  0  0  0  0  0  0  0  0
   -2.8280   -1.3890   -0.9007 H   0  0  0  0  0  0  0  0  0  0  0  0
   -2.6263   -1.2573    0.8571 H   0  0  0  0  0  0  0  0  0  0  0  0
   -0.1575   -0.6755    0.1026 C   0  0  0  0  0  0  0  0  0  0  0  0
   -1.4577    0.7788    0.6855 H   0  0  0  0  0  0  0  0  0  0  0  0
   -1.3635    0.9416   -1.0833 H   0  0  0  0  0  0  0  0  0  0  0  0
   -0.2118   -1.1953    0.9656 H   0  0  0  0  0  0  0  0  0  0  0  0
    0.7529   -0.0740    0.2214 H   0  0  0  0  0  0  0  0  0  0  0  0
   -0.0222   -1.4460   -0.8643 H   0  0  0  0  0  0  0  0  0  0  0  0
  1  3  1  0  0  0  0
  1  5  1  0  0  0  0
  2  1  1  0  0  0  0
  2  8  1  0  0  0  0
  4  1  1  0  0  0  0
  6  2  1  0  0  0  0
  6  9  1  0  0  0  0
  6 10  1  0  0  0  0
  7  2  1  0  0  0  0
  9 13  1  0  0  0  0
  9 12  1  0  0  0  0
 11  6  1  0  0  0  0
 14  9  1  0  0  0  0
M  END
$$$$
