14
butane_opt
C  -3.932636   0.280128   0.059214
C  -2.682745  -0.633190  -0.029875
H  -4.858002  -0.331850   0.072382
H  -3.965826   0.781106  -0.781113
H  -3.947268   1.040909   0.971238
C  -1.425407   0.177699  -0.010241
H  -2.748981  -1.350893  -0.957321
H  -2.564012  -1.269864   0.827884
C  -0.191305  -0.676431   0.078590
H  -1.402561   0.838255   0.813715
H  -1.302745   0.813808  -0.916382
H  -0.052960  -1.523043   1.131371
H   0.797026  -0.072317  -0.206005
H  -0.206332  -1.160450  -0.658890
