14
butane_opt
C  -3.935495   0.240624  -0.018952
C  -2.711509  -0.585631   0.069123
H  -4.852917  -0.364373   0.185024
H  -4.004950   1.096464  -1.043509
H  -3.817672   0.791829   0.733576
C  -1.395007   0.192356   0.061526
H  -2.667018  -1.323123  -0.821835
H  -2.860417  -1.180146   0.959415
C  -0.158298  -0.712358   0.001733
H  -1.425100   0.890677   0.969772
H  -1.486208   0.806852  -0.818437
H  -0.066268  -1.270936   0.831557
H   0.759551  -0.115936  -0.002253
H  -0.198350  -1.416928  -0.930920
