butane_opt
 OpenBabel08242015413D

 14 13  0  0  0  0  0  0  0  0999 V2000
   -3.9355    0.2406   -0.0190 C   0  0  0  0  0  0  0  0  0  0  0  0
   -2.7115   -0.5856    0.0691 C   0  0  0  0  0  0  0  0  0  0  0  0
   -4.8529   -0.3644    0.1850 H   0  0  0  0  0  0  0  0  0  0  0  0
   -4.0050    1.0965   -1.0435 H   0  0  0  0  0  0  0  0  0  0  0  0
   -3.8177    0.7918    0.7336 H   0  0  0  0  0  0  0  0  0  0  0  0
   -1.3950    0.1924    0.0615 C   0  0  0  0  0  0  0  0  0  0  0  0
   -2.6670   -1.3231   -0.8218 H   0  0  0  0  0  0  0  0  0  0  0  0
   -2.8604   -1.1801    0.9594 H   0  0  0  0  0  0  0  0  0  0  0  0
   -0.1583   -0.7124    0.0017 C   0  0  0  0  0  0  0  0  0  0  0  0
   -1.4251    0.8907    0.9698 H   0  0  0  0  0  0  0  0  0  0  0  0
   -1.4862    0.8069   -0.8184 H   0  0  0  0  0  0  0  0  0  0  0  0
   -0.0663   -1.2709    0.8316 H   0  0  0  0  0  0  0  0  0  0  0  0
    0.7596   -0.1159   -0.0023 H   0  0  0  0  0  0  0  0  0  0  0  0
   -0.1983   -1.4169   -0.9309 H   0  0  0  0  0  0  0  0  0  0  0  0
  1  2  1  0  0  0  0
  1  3  1  0  0  0  0
  1  5  1  0  0  0  0
  2  8  1  0  0  0  0
  4  1  1  0  0  0  0
  6  2  1  0  0  0  0
  6 10  1  0  0  0  0
  7  2  1  0  0  0  0
  9  6  1  0  0  0  0
  9 12  1  0  0  0  0
 11  6  1  0  0  0  0
 13  9  1  0  0  0  0
 14  9  1  0  0  0  0
M  END
$$$$
