butane_opt
 OpenBabel08242015413D

 14 13  0  0  0  0  0  0  0  0999 V2000
   -3.9623    0.2371   -0.0232 C   0  0  0  0  0  0  0  0  0  0  0  0
   -2.7230   -0.5973    0.0612 C   0  0  0  0  0  0  0  0  0  0  0  0
   -4.8153   -0.3312    0.1990 H   0  0  0  0  0  0  0  0  0  0  0  0
   -3.9488    1.0357   -1.0174 H   0  0  0  0  0  0  0  0  0  0  0  0
   -3.9360    0.7371    0.7205 H   0  0  0  0  0  0  0  0  0  0  0  0
   -1.3911    0.2131    0.0734 C   0  0  0  0  0  0  0  0  0  0  0  0
   -2.7208   -1.2030   -0.7774 H   0  0  0  0  0  0  0  0  0  0  0  0
   -2.6710   -1.2477    0.9674 H   0  0  0  0  0  0  0  0  0  0  0  0
   -0.1507   -0.7168   -0.0037 C   0  0  0  0  0  0  0  0  0  0  0  0
   -1.3587    0.9444    0.9608 H   0  0  0  0  0  0  0  0  0  0  0  0
   -1.3612    0.8457   -0.8092 H   0  0  0  0  0  0  0  0  0  0  0  0
   -0.0124   -1.2549    0.8117 H   0  0  0  0  0  0  0  0  0  0  0  0
    0.6649   -0.1908    0.0155 H   0  0  0  0  0  0  0  0  0  0  0  0
   -0.1273   -1.4553   -0.9488 H   0  0  0  0  0  0  0  0  0  0  0  0
  1  2  1  0  0  0  0
  1  3  1  0  0  0  0
  1  5  1  0  0  0  0
  2  6  1  0  0  0  0
  2  8  1  0  0  0  0
  4  1  1  0  0  0  0
  6 10  1  0  0  0  0
  7  2  1  0  0  0  0
  9 13  1  0  0  0  0
  9  6  1  0  0  0  0
  9 12  1  0  0  0  0
 11  6  1  0  0  0  0
 14  9  1  0  0  0  0
M  END
$$$$
