butane_opt
 OpenBabel08242015413D

 14 13  0  0  0  0  0  0  0  0999 V2000
   -3.9522    0.2412    0.0560 C   0  0  0  0  0  0  0  0  0  0  0  0
   -2.7118   -0.5928   -0.0185 C   0  0  0  0  0  0  0  0  0  0  0  0
   -4.9300   -0.3687    0.2248 H   0  0  0  0  0  0  0  0  0  0  0  0
   -3.9782    0.8807   -0.8680 H   0  0  0  0  0  0  0  0  0  0  0  0
   -3.8304    0.9243    0.9111 H   0  0  0  0  0  0  0  0  0  0  0  0
   -1.4042    0.2012   -0.0130 C   0  0  0  0  0  0  0  0  0  0  0  0
   -2.7800   -1.2880   -0.8982 H   0  0  0  0  0  0  0  0  0  0  0  0
   -2.6826   -1.1580    0.7472 H   0  0  0  0  0  0  0  0  0  0  0  0
   -0.1440   -0.6994    0.0785 C   0  0  0  0  0  0  0  0  0  0  0  0
   -1.5297    0.8367    0.7891 H   0  0  0  0  0  0  0  0  0  0  0  0
   -1.3347    0.8559   -0.9324 H   0  0  0  0  0  0  0  0  0  0  0  0
   -0.0207   -1.4340    1.0278 H   0  0  0  0  0  0  0  0  0  0  0  0
    0.6936   -0.1710   -0.0452 H   0  0  0  0  0  0  0  0  0  0  0  0
   -0.0892   -1.3568   -0.7471 H   0  0  0  0  0  0  0  0  0  0  0  0
  1  3  1  0  0  0  0
  1  5  1  0  0  0  0
  2  6  1  0  0  0  0
  2  1  1  0  0  0  0
  2  8  1  0  0  0  0
  4  1  1  0  0  0  0
  6  9  1  0  0  0  0
  6 10  1  0  0  0  0
  7  2  1  0  0  0  0
  9 12  1  0  0  0  0
 11  6  1  0  0  0  0
 13  9  1  0  0  0  0
 14  9  1  0  0  0  0
M  END
$$$$
