14
butane_opt
C  -3.959171   0.234973  -0.008701
C  -2.708398  -0.582474   0.039591
H  -4.898972  -0.349206   0.169711
H  -4.004480   0.996343  -1.002198
H  -3.868390   0.831954   0.817936
C  -1.399542   0.214456   0.061780
H  -2.742282  -1.323350  -0.829429
H  -2.840944  -1.214961   0.969255
C  -0.133947  -0.713683   0.020957
H  -1.374636   0.867158   0.913142
H  -1.444567   0.822307  -0.843607
H  -0.051189  -1.356294   0.901907
H   0.751406  -0.159564  -0.134331
H  -0.131155  -1.419220  -0.898968
