butane_opt
 OpenBabel08242015413D

 14 13  0  0  0  0  0  0  0  0999 V2000
   -3.9444    0.2490    0.0712 C   0  0  0  0  0  0  0  0  0  0  0  0
   -2.7168   -0.5787   -0.0232 C   0  0  0  0  0  0  0  0  0  0  0  0
   -4.8957   -0.3764    0.1864 H   0  0  0  0  0  0  0  0  0  0  0  0
   -4.0798    0.8819   -0.8357 H   0  0  0  0  0  0  0  0  0  0  0  0
   -3.8465    0.7595    0.8580 H   0  0  0  0  0  0  0  0  0  0  0  0
   -1.4071    0.2074   -0.0356 C   0  0  0  0  0  0  0  0  0  0  0  0
   -2.7523   -1.3538   -0.9260 H   0  0  0  0  0  0  0  0  0  0  0  0
   -2.7076   -1.0882    0.8200 H   0  0  0  0  0  0  0  0  0  0  0  0
   -0.1428   -0.7222    0.0843 C   0  0  0  0  0  0  0  0  0  0  0  0
   -1.3679    0.8675    0.7970 H   0  0  0  0  0  0  0  0  0  0  0  0
   -1.3301    0.8224   -0.9219 H   0  0  0  0  0  0  0  0  0  0  0  0
   -0.1639   -1.3890    1.0262 H   0  0  0  0  0  0  0  0  0  0  0  0
    0.7171   -0.1401    0.0331 H   0  0  0  0  0  0  0  0  0  0  0  0
   -0.0472   -1.3357   -0.7647 H   0  0  0  0  0  0  0  0  0  0  0  0
  1  3  1  0  0  0  0
  1  5  1  0  0  0  0
  2  1  1  0  0  0  0
  2  8  1  0  0  0  0
  4  1  1  0  0  0  0
  6  2  1  0  0  0  0
  6  9  1  0  0  0  0
  6 10  1  0  0  0  0
  7  2  1  0  0  0  0
  9 12  1  0  0  0  0
 11  6  1  0  0  0  0
 13  9  1  0  0  0  0
 14  9  1  0  0  0  0
M  END
$$$$
