butane_opt
 OpenBabel08242015413D

 14 13  0  0  0  0  0  0  0  0999 V2000
   -3.9469    0.2500   -0.0356 C   0  0  0  0  0  0  0  0  0  0  0  0
   -2.7197   -0.6014    0.1177 C   0  0  0  0  0  0  0  0  0  0  0  0
   -4.8853   -0.3299   -0.2330 H   0  0  0  0  0  0  0  0  0  0  0  0
   -3.8464    0.7533   -0.8699 H   0  0  0  0  0  0  0  0  0  0  0  0
   -4.1618    0.9818    0.8194 H   0  0  0  0  0  0  0  0  0  0  0  0
   -1.3880    0.1969    0.0423 C   0  0  0  0  0  0  0  0  0  0  0  0
   -2.7674   -1.1607   -0.6509 H   0  0  0  0  0  0  0  0  0  0  0  0
   -2.7489   -1.2344    1.0622 H   0  0  0  0  0  0  0  0  0  0  0  0
   -0.1346   -0.7120   -0.0218 C   0  0  0  0  0  0  0  0  0  0  0  0
   -1.3700    0.9621    0.9697 H   0  0  0  0  0  0  0  0  0  0  0  0
   -1.4837    0.7699   -0.7854 H   0  0  0  0  0  0  0  0  0  0  0  0
   -0.0235   -1.3096    0.8240 H   0  0  0  0  0  0  0  0  0  0  0  0
    0.7450   -0.1249   -0.0596 H   0  0  0  0  0  0  0  0  0  0  0  0
   -0.1973   -1.4028   -0.8647 H   0  0  0  0  0  0  0  0  0  0  0  0
  1  2  1  0  0  0  0
  1  5  1  0  0  0  0
  2  8  1  0  0  0  0
  3  1  1  0  0  0  0
  4  1  1  0  0  0  0
  6  2  1  0  0  0  0
  6 10  1  0  0  0  0
  7  2  1  0  0  0  0
  9  6  1  0  0  0  0
  9 12  1  0  0  0  0
 11  6  1  0  0  0  0
 13  9  1  0  0  0  0
 14  9  1  0  0  0  0
M  END
$$$$
