14
butane_opt
C  -3.944352   0.248960   0.071172
C  -2.716752  -0.578729  -0.023222
H  -4.895662  -0.376376   0.186366
H  -4.079788   0.881927  -0.835703
H  -3.846482   0.759550   0.858005
C  -1.407136   0.207388  -0.035630
H  -2.752262  -1.353782  -0.926037
H  -2.707616  -1.088221   0.820004
C  -0.142826  -0.722196   0.084262
H  -1.367863   0.867493   0.796960
H  -1.330126   0.822438  -0.921900
H  -0.163859  -1.389039   1.026211
H   0.717136  -0.140060   0.033058
H  -0.047175  -1.335737  -0.764738
