butane_opt
 OpenBabel08242015413D

 14 13  0  0  0  0  0  0  0  0999 V2000
   -3.9314    0.2413    0.0629 C   0  0  0  0  0  0  0  0  0  0  0  0
   -2.7054   -0.5869   -0.0476 C   0  0  0  0  0  0  0  0  0  0  0  0
   -4.8989   -0.4130    0.2818 H   0  0  0  0  0  0  0  0  0  0  0  0
   -4.0317    0.9313   -0.8731 H   0  0  0  0  0  0  0  0  0  0  0  0
   -3.6744    0.8771    0.9364 H   0  0  0  0  0  0  0  0  0  0  0  0
   -1.4281    0.2161   -0.0304 C   0  0  0  0  0  0  0  0  0  0  0  0
   -2.7079   -1.3144   -0.9237 H   0  0  0  0  0  0  0  0  0  0  0  0
   -2.6355   -1.2100    0.8245 H   0  0  0  0  0  0  0  0  0  0  0  0
   -0.1614   -0.7092    0.0886 C   0  0  0  0  0  0  0  0  0  0  0  0
   -1.4266    0.8384    0.8426 H   0  0  0  0  0  0  0  0  0  0  0  0
   -1.4418    0.7950   -0.8608 H   0  0  0  0  0  0  0  0  0  0  0  0
   -0.1651   -1.4211    1.0496 H   0  0  0  0  0  0  0  0  0  0  0  0
    0.7530   -0.1474   -0.0455 H   0  0  0  0  0  0  0  0  0  0  0  0
   -0.0771   -1.3300   -0.6788 H   0  0  0  0  0  0  0  0  0  0  0  0
  1  3  1  0  0  0  0
  1  5  1  0  0  0  0
  2  6  1  0  0  0  0
  2  1  1  0  0  0  0
  2  8  1  0  0  0  0
  4  1  1  0  0  0  0
  6  9  1  0  0  0  0
  6 10  1  0  0  0  0
  7  2  1  0  0  0  0
  9 12  1  0  0  0  0
 11  6  1  0  0  0  0
 13  9  1  0  0  0  0
 14  9  1  0  0  0  0
M  END
$$$$
