butane_opt
 OpenBabel08242015413D

 14 13  0  0  0  0  0  0  0  0999 V2000
   -3.9274    0.2700    0.0879 C   0  0  0  0  0  0  0  0  0  0  0  0
   -2.6855   -0.6373   -0.0396 C   0  0  0  0  0  0  0  0  0  0  0  0
   -4.8284   -0.3058    0.1803 H   0  0  0  0  0  0  0  0  0  0  0  0
   -4.0588    0.9290   -0.8279 H   0  0  0  0  0  0  0  0  0  0  0  0
   -3.8379    0.9238    0.8951 H   0  0  0  0  0  0  0  0  0  0  0  0
   -1.4211    0.1835   -0.0402 C   0  0  0  0  0  0  0  0  0  0  0  0
   -2.7669   -1.3754   -0.9726 H   0  0  0  0  0  0  0  0  0  0  0  0
   -2.7346   -1.1994    0.8205 H   0  0  0  0  0  0  0  0  0  0  0  0
   -0.1719   -0.6953    0.0973 C   0  0  0  0  0  0  0  0  0  0  0  0
   -1.4996    0.8089    0.7693 H   0  0  0  0  0  0  0  0  0  0  0  0
   -1.3457    0.9534   -0.9991 H   0  0  0  0  0  0  0  0  0  0  0  0
   -0.1902   -1.2757    0.9627 H   0  0  0  0  0  0  0  0  0  0  0  0
    0.7634   -0.0647    0.0562 H   0  0  0  0  0  0  0  0  0  0  0  0
   -0.0654   -1.3132   -0.7172 H   0  0  0  0  0  0  0  0  0  0  0  0
  1  3  1  0  0  0  0
  1  5  1  0  0  0  0
  2  1  1  0  0  0  0
  2  8  1  0  0  0  0
  4  1  1  0  0  0  0
  6  2  1  0  0  0  0
  6  9  1  0  0  0  0
  6 10  1  0  0  0  0
  7  2  1  0  0  0  0
  9 12  1  0  0  0  0
 11  6  1  0  0  0  0
 13  9  1  0  0  0  0
 14  9  1  0  0  0  0
M  END
$$$$
