14
butane_opt
C  -3.952209   0.241230   0.056015
C  -2.711765  -0.592841  -0.018495
H  -4.930043  -0.368666   0.224826
H  -3.978195   0.880724  -0.867989
H  -3.830369   0.924278   0.911067
C  -1.404203   0.201220  -0.012995
H  -2.780023  -1.288045  -0.898174
H  -2.682612  -1.157960   0.747217
C  -0.144006  -0.699438   0.078543
H  -1.529720   0.836654   0.789074
H  -1.334687   0.855936  -0.932370
H  -0.020730  -1.433995   1.027822
H   0.693584  -0.170977  -0.045171
H  -0.089205  -1.356828  -0.747103
