butane_opt
 OpenBabel08242015413D

 14 13  0  0  0  0  0  0  0  0999 V2000
   -3.9592    0.2350   -0.0087 C   0  0  0  0  0  0  0  0  0  0  0  0
   -2.7084   -0.5825    0.0396 C   0  0  0  0  0  0  0  0  0  0  0  0
   -4.8990   -0.3492    0.1697 H   0  0  0  0  0  0  0  0  0  0  0  0
   -4.0045    0.9963   -1.0022 H   0  0  0  0  0  0  0  0  0  0  0  0
   -3.8684    0.8320    0.8179 H   0  0  0  0  0  0  0  0  0  0  0  0
   -1.3995    0.2145    0.0618 C   0  0  0  0  0  0  0  0  0  0  0  0
   -2.7423   -1.3234   -0.8294 H   0  0  0  0  0  0  0  0  0  0  0  0
   -2.8409   -1.2150    0.9693 H   0  0  0  0  0  0  0  0  0  0  0  0
   -0.1339   -0.7137    0.0210 C   0  0  0  0  0  0  0  0  0  0  0  0
   -1.3746    0.8672    0.9131 H   0  0  0  0  0  0  0  0  0  0  0  0
   -1.4446    0.8223   -0.8436 H   0  0  0  0  0  0  0  0  0  0  0  0
   -0.0512   -1.3563    0.9019 H   0  0  0  0  0  0  0  0  0  0  0  0
    0.7514   -0.1596   -0.1343 H   0  0  0  0  0  0  0  0  0  0  0  0
   -0.1312   -1.4192   -0.8990 H   0  0  0  0  0  0  0  0  0  0  0  0
  1  2  1  0  0  0  0
  1  3  1  0  0  0  0
  1  5  1  0  0  0  0
  2  6  1  0  0  0  0
  2  8  1  0  0  0  0
  4  1  1  0  0  0  0
  6 10  1  0  0  0  0
  7  2  1  0  0  0  0
  9  6  1  0  0  0  0
  9 12  1  0  0  0  0
 11  6  1  0  0  0  0
 13  9  1  0  0  0  0
 14  9  1  0  0  0  0
M  END
$$$$
