14
butane_opt
C  -3.957544   0.249989   0.053690
C  -2.690926  -0.608582  -0.030078
H  -4.876360  -0.359034   0.283893
H  -4.105181   0.875735  -0.874449
H  -3.862939   0.858530   0.930020
C  -1.403498   0.210769  -0.025338
H  -2.790538  -1.261265  -0.854807
H  -2.706873  -1.216187   0.832120
C  -0.156031  -0.707474   0.072139
H  -1.424331   0.855563   0.821020
H  -1.363290   0.872165  -0.896931
H  -0.091627  -1.300384   0.969608
H   0.679571  -0.193031   0.104647
H   0.021799  -1.343456  -0.723907
