14
butane_opt
C  -3.927421   0.270014   0.087895
C  -2.685452  -0.637298  -0.039579
H  -4.828395  -0.305827   0.180310
H  -4.058832   0.928992  -0.827888
H  -3.837890   0.923753   0.895141
C  -1.421089   0.183460  -0.040190
H  -2.766945  -1.375390  -0.972589
H  -2.734612  -1.199438   0.820487
C  -0.171852  -0.695253   0.097268
H  -1.499625   0.808888   0.769309
H  -1.345749   0.953436  -0.999082
H  -0.190248  -1.275740   0.962717
H   0.763447  -0.064715   0.056207
H  -0.065352  -1.313244  -0.717212
