butane_opt
 OpenBabel08242015413D

 14 13  0  0  0  0  0  0  0  0999 V2000
   -3.9452    0.2593   -0.0095 C   0  0  0  0  0  0  0  0  0  0  0  0
   -2.7103   -0.6062    0.0558 C   0  0  0  0  0  0  0  0  0  0  0  0
   -4.8737   -0.3576    0.0213 H   0  0  0  0  0  0  0  0  0  0  0  0
   -3.9399    0.9064   -0.8992 H   0  0  0  0  0  0  0  0  0  0  0  0
   -4.0129    0.9195    0.8365 H   0  0  0  0  0  0  0  0  0  0  0  0
   -1.3955    0.1999    0.0519 C   0  0  0  0  0  0  0  0  0  0  0  0
   -2.6785   -1.3274   -0.8208 H   0  0  0  0  0  0  0  0  0  0  0  0
   -2.7732   -1.2414    0.9699 H   0  0  0  0  0  0  0  0  0  0  0  0
   -0.1517   -0.7080    0.0129 C   0  0  0  0  0  0  0  0  0  0  0  0
   -1.3849    0.8928    0.9111 H   0  0  0  0  0  0  0  0  0  0  0  0
   -1.3946    0.7807   -0.8339 H   0  0  0  0  0  0  0  0  0  0  0  0
   -0.0306   -1.3731    0.9417 H   0  0  0  0  0  0  0  0  0  0  0  0
    0.7572   -0.1009   -0.1818 H   0  0  0  0  0  0  0  0  0  0  0  0
   -0.2518   -1.3100   -0.8302 H   0  0  0  0  0  0  0  0  0  0  0  0
  1  3  1  0  0  0  0
  1  2  1  0  0  0  0
  1  5  1  0  0  0  0
  2  8  1  0  0  0  0
  4  1  1  0  0  0  0
  6  2  1  0  0  0  0
  6 10  1  0  0  0  0
  7  2  1  0  0  0  0
  9  6  1  0  0  0  0
  9 12  1  0  0  0  0
 11  6  1  0  0  0  0
 13  9  1  0  0  0  0
 14  9  1  0  0  0  0
M  END
$$$$
