14
butane_opt
C  -3.928654   0.250063  -0.033404
C  -2.699874  -0.600512   0.077874
H  -4.851372  -0.400868   0.155602
H  -3.925878   1.009020  -0.996483
H  -3.936819   0.824245   0.794257
C  -1.420288   0.191306   0.060424
H  -2.577266  -1.222040  -0.706454
H  -2.735824  -1.327249   1.074032
C  -0.170096  -0.697110  -0.018554
H  -1.402784   0.940906   0.970151
H  -1.399246   0.794759  -0.850431
H  -0.133865  -1.163124   0.777759
H   0.687777  -0.154367   0.129919
H  -0.110455  -1.506178  -0.965510
