butane_opt
 OpenBabel08242015413D

 14 13  0  0  0  0  0  0  0  0999 V2000
   -3.9304    0.2593    0.0627 C   0  0  0  0  0  0  0  0  0  0  0  0
   -2.6971   -0.5846    0.0024 C   0  0  0  0  0  0  0  0  0  0  0  0
   -4.9268   -0.3875   -0.0264 H   0  0  0  0  0  0  0  0  0  0  0  0
   -3.9059    0.6805   -0.6821 H   0  0  0  0  0  0  0  0  0  0  0  0
   -3.9639    1.0616    0.9899 H   0  0  0  0  0  0  0  0  0  0  0  0
   -1.4248    0.1794   -0.0606 C   0  0  0  0  0  0  0  0  0  0  0  0
   -2.7046   -1.2844   -0.8662 H   0  0  0  0  0  0  0  0  0  0  0  0
   -2.6818   -1.2771    0.9371 H   0  0  0  0  0  0  0  0  0  0  0  0
   -0.1611   -0.6980    0.0846 C   0  0  0  0  0  0  0  0  0  0  0  0
   -1.4225    0.8243    0.7487 H   0  0  0  0  0  0  0  0  0  0  0  0
   -1.3240    0.7906   -1.0065 H   0  0  0  0  0  0  0  0  0  0  0  0
   -0.1767   -1.3023    0.9861 H   0  0  0  0  0  0  0  0  0  0  0  0
    0.7370   -0.1426    0.0954 H   0  0  0  0  0  0  0  0  0  0  0  0
   -0.0853   -1.3209   -0.7808 H   0  0  0  0  0  0  0  0  0  0  0  0
  1  5  1  0  0  0  0
  2  1  1  0  0  0  0
  2  8  1  0  0  0  0
  3  1  1  0  0  0  0
  4  1  1  0  0  0  0
  6  2  1  0  0  0  0
  6  9  1  0  0  0  0
  6 10  1  0  0  0  0
  7  2  1  0  0  0  0
  9 13  1  0  0  0  0
  9 12  1  0  0  0  0
 11  6  1  0  0  0  0
 14  9  1  0  0  0  0
M  END
$$$$
