14
butane_opt
C  -3.944716   0.256408   0.033535
C  -2.722798  -0.598357   0.046613
H  -4.908224  -0.407689  -0.223050
H  -3.852157   0.619696  -0.751043
H  -3.997531   1.123921   1.063628
C  -1.405266   0.202650  -0.014129
H  -2.705508  -1.251930  -0.788444
H  -2.858054  -1.181042   0.904706
C  -0.136958  -0.720674   0.043242
H  -1.420753   0.814233   0.732311
H  -1.421510   0.942811  -0.985029
H  -0.017478  -1.389386   0.973260
H   0.781333  -0.125545   0.011074
H  -0.106922  -1.308939  -0.762599
