butane_opt
 OpenBabel08242015413D

 14 13  0  0  0  0  0  0  0  0999 V2000
   -3.9108    0.2395    0.0650 C   0  0  0  0  0  0  0  0  0  0  0  0
   -2.6980   -0.5842    0.0058 C   0  0  0  0  0  0  0  0  0  0  0  0
   -4.8607   -0.3598   -0.2299 H   0  0  0  0  0  0  0  0  0  0  0  0
   -3.9355    0.6715   -0.7028 H   0  0  0  0  0  0  0  0  0  0  0  0
   -4.0360    1.1353    1.0968 H   0  0  0  0  0  0  0  0  0  0  0  0
   -1.4210    0.2033   -0.0498 C   0  0  0  0  0  0  0  0  0  0  0  0
   -2.7362   -1.2415   -0.8294 H   0  0  0  0  0  0  0  0  0  0  0  0
   -2.7616   -1.2929    0.9626 H   0  0  0  0  0  0  0  0  0  0  0  0
   -0.1680   -0.7140    0.0706 C   0  0  0  0  0  0  0  0  0  0  0  0
   -1.4356    0.8448    0.7768 H   0  0  0  0  0  0  0  0  0  0  0  0
   -1.3557    0.8497   -1.0074 H   0  0  0  0  0  0  0  0  0  0  0  0
   -0.1682   -1.3868    1.0189 H   0  0  0  0  0  0  0  0  0  0  0  0
    0.7642   -0.1321    0.0025 H   0  0  0  0  0  0  0  0  0  0  0  0
   -0.1042   -1.3031   -0.7239 H   0  0  0  0  0  0  0  0  0  0  0  0
  1  5  1  0  0  0  0
  2  1  1  0  0  0  0
  2  8  1  0  0  0  0
  3  1  1  0  0  0  0
  4  1  1  0  0  0  0
  6  2  1  0  0  0  0
  6  9  1  0  0  0  0
  6 10  1  0  0  0  0
  7  2  1  0  0  0  0
  9 12  1  0  0  0  0
 11  6  1  0  0  0  0
 13  9  1  0  0  0  0
 14  9  1  0  0  0  0
M  END
$$$$
