14
butane_opt
C  -3.948541   0.251638   0.055802
C  -2.720895  -0.598066   0.000945
H  -4.865662  -0.349123  -0.136831
H  -3.950144   0.670625  -0.715072
H  -3.934375   1.118283   1.058386
C  -1.415911   0.192870  -0.044649
H  -2.761688  -1.216174  -0.817981
H  -2.655984  -1.310921   0.943484
C  -0.122876  -0.707428   0.066231
H  -1.439197   0.808787   0.817363
H  -1.366476   0.900829  -0.986407
H  -0.164036  -1.344444   0.991694
H   0.738676  -0.119317   0.069451
H  -0.116464  -1.307412  -0.709432
