butane_opt
 OpenBabel08242015413D

 14 13  0  0  0  0  0  0  0  0999 V2000
   -3.9309    0.2586    0.0019 C   0  0  0  0  0  0  0  0  0  0  0  0
   -2.7016   -0.6024    0.0400 C   0  0  0  0  0  0  0  0  0  0  0  0
   -4.8589   -0.3736    0.1551 H   0  0  0  0  0  0  0  0  0  0  0  0
   -3.9979    0.9663   -0.9593 H   0  0  0  0  0  0  0  0  0  0  0  0
   -3.9385    0.8250    0.7664 H   0  0  0  0  0  0  0  0  0  0  0  0
   -1.4167    0.1855    0.0456 C   0  0  0  0  0  0  0  0  0  0  0  0
   -2.7006   -1.2684   -0.8053 H   0  0  0  0  0  0  0  0  0  0  0  0
   -2.7445   -1.2452    0.9413 H   0  0  0  0  0  0  0  0  0  0  0  0
   -0.1540   -0.7004    0.0183 C   0  0  0  0  0  0  0  0  0  0  0  0
   -1.3794    0.8445    0.9090 H   0  0  0  0  0  0  0  0  0  0  0  0
   -1.4380    0.8274   -0.8359 H   0  0  0  0  0  0  0  0  0  0  0  0
   -0.0899   -1.2430    0.8642 H   0  0  0  0  0  0  0  0  0  0  0  0
    0.7321   -0.1126   -0.0083 H   0  0  0  0  0  0  0  0  0  0  0  0
   -0.1627   -1.3903   -0.8677 H   0  0  0  0  0  0  0  0  0  0  0  0
  1  2  1  0  0  0  0
  1  3  1  0  0  0  0
  1  5  1  0  0  0  0
  2  6  1  0  0  0  0
  2  8  1  0  0  0  0
  4  1  1  0  0  0  0
  6 10  1  0  0  0  0
  7  2  1  0  0  0  0
  9  6  1  0  0  0  0
  9 12  1  0  0  0  0
 11  6  1  0  0  0  0
 13  9  1  0  0  0  0
 14  9  1  0  0  0  0
M  END
$$$$
