butane_opt
 OpenBabel08242015413D

 14 13  0  0  0  0  0  0  0  0999 V2000
   -3.9102    0.2452    0.0146 C   0  0  0  0  0  0  0  0  0  0  0  0
   -2.7092   -0.6046    0.0447 C   0  0  0  0  0  0  0  0  0  0  0  0
   -4.8131   -0.3700   -0.0639 H   0  0  0  0  0  0  0  0  0  0  0  0
   -3.9245    0.6728   -0.7453 H   0  0  0  0  0  0  0  0  0  0  0  0
   -3.8943    1.0975    0.9966 H   0  0  0  0  0  0  0  0  0  0  0  0
   -1.4370    0.2152   -0.0214 C   0  0  0  0  0  0  0  0  0  0  0  0
   -2.7180   -1.2324   -0.7922 H   0  0  0  0  0  0  0  0  0  0  0  0
   -2.6910   -1.2932    1.0038 H   0  0  0  0  0  0  0  0  0  0  0  0
   -0.1661   -0.7151    0.0404 C   0  0  0  0  0  0  0  0  0  0  0  0
   -1.4611    0.9060    0.8031 H   0  0  0  0  0  0  0  0  0  0  0  0
   -1.4466    0.8728   -0.9420 H   0  0  0  0  0  0  0  0  0  0  0  0
   -0.1061   -1.3438    0.9587 H   0  0  0  0  0  0  0  0  0  0  0  0
    0.7712   -0.0585    0.1000 H   0  0  0  0  0  0  0  0  0  0  0  0
   -0.0768   -1.4173   -0.7984 H   0  0  0  0  0  0  0  0  0  0  0  0
  1  2  1  0  0  0  0
  1  5  1  0  0  0  0
  2  8  1  0  0  0  0
  3  1  1  0  0  0  0
  4  1  1  0  0  0  0
  6  9  1  0  0  0  0
  6  2  1  0  0  0  0
  6 10  1  0  0  0  0
  7  2  1  0  0  0  0
  9 13  1  0  0  0  0
  9 12  1  0  0  0  0
 11  6  1  0  0  0  0
 14  9  1  0  0  0  0
M  END
$$$$
