butane_opt
 OpenBabel08242015413D

 14 13  0  0  0  0  0  0  0  0999 V2000
   -3.9490    0.2744   -0.0214 C   0  0  0  0  0  0  0  0  0  0  0  0
   -2.7021   -0.6183    0.0778 C   0  0  0  0  0  0  0  0  0  0  0  0
   -4.8582   -0.3283   -0.0682 H   0  0  0  0  0  0  0  0  0  0  0  0
   -3.8934    0.8181   -0.8614 H   0  0  0  0  0  0  0  0  0  0  0  0
   -4.0266    1.0008    0.8656 H   0  0  0  0  0  0  0  0  0  0  0  0
   -1.4013    0.1651    0.0413 C   0  0  0  0  0  0  0  0  0  0  0  0
   -2.7019   -1.2071   -0.7240 H   0  0  0  0  0  0  0  0  0  0  0  0
   -2.6954   -1.3278    1.0252 H   0  0  0  0  0  0  0  0  0  0  0  0
   -0.1665   -0.6892    0.0030 C   0  0  0  0  0  0  0  0  0  0  0  0
   -1.3344    0.9015    0.9279 H   0  0  0  0  0  0  0  0  0  0  0  0
   -1.3666    0.7897   -0.8669 H   0  0  0  0  0  0  0  0  0  0  0  0
   -0.0857   -1.2739    0.8587 H   0  0  0  0  0  0  0  0  0  0  0  0
    0.7440   -0.0672   -0.0344 H   0  0  0  0  0  0  0  0  0  0  0  0
   -0.1854   -1.3668   -0.8881 H   0  0  0  0  0  0  0  0  0  0  0  0
  1  2  1  0  0  0  0
  1  5  1  0  0  0  0
  2  8  1  0  0  0  0
  3  1  1  0  0  0  0
  4  1  1  0  0  0  0
  6  2  1  0  0  0  0
  6 10  1  0  0  0  0
  7  2  1  0  0  0  0
  9  6  1  0  0  0  0
  9 12  1  0  0  0  0
 11  6  1  0  0  0  0
 13  9  1  0  0  0  0
 14  9  1  0  0  0  0
M  END
$$$$
