14
butane_opt
C  -3.948240   0.279676  -0.049557
C  -2.699207  -0.646656   0.137362
H  -4.821158  -0.293161  -0.183033
H  -3.808602   0.806232  -0.931488
H  -4.181062   1.009141   0.880872
C  -1.415348   0.186678   0.061083
H  -2.648602  -1.278120  -0.670021
H  -2.742784  -1.295874   1.059041
C  -0.159224  -0.688512  -0.025323
H  -1.389780   0.872936   0.912549
H  -1.363197   0.822525  -0.885591
H  -0.025557  -1.170543   0.773479
H   0.813667  -0.041936  -0.030959
H  -0.207155  -1.467609  -0.968740
