14
butane_opt
C  -3.964497   0.269688   0.077889
C  -2.713512  -0.617562  -0.005600
H  -4.858187  -0.291222   0.105194
H  -4.108697   0.887976  -0.760624
H  -3.928049   0.978348   0.950225
C  -1.395216   0.171177  -0.076148
H  -2.787969  -1.315590  -0.882968
H  -2.673196  -1.228184   0.828580
C  -0.146060  -0.692065   0.088605
H  -1.391175   0.820971   0.754969
H  -1.268110   0.826684  -1.012488
H  -0.288879  -1.270290   0.966520
H   0.839550  -0.018334   0.277383
H   0.060950  -1.432931  -0.814523
