butane_opt
 OpenBabel08242015413D

 14 13  0  0  0  0  0  0  0  0999 V2000
   -3.9457    0.2568    0.0761 C   0  0  0  0  0  0  0  0  0  0  0  0
   -2.7226   -0.5908   -0.0156 C   0  0  0  0  0  0  0  0  0  0  0  0
   -4.9019   -0.4115    0.0960 H   0  0  0  0  0  0  0  0  0  0  0  0
   -3.9786    0.8614   -0.8399 H   0  0  0  0  0  0  0  0  0  0  0  0
   -3.8877    0.8725    0.9281 H   0  0  0  0  0  0  0  0  0  0  0  0
   -1.4078    0.2045   -0.0384 C   0  0  0  0  0  0  0  0  0  0  0  0
   -2.7963   -1.3445   -0.9322 H   0  0  0  0  0  0  0  0  0  0  0  0
   -2.6598   -1.1470    0.8405 H   0  0  0  0  0  0  0  0  0  0  0  0
   -0.1435   -0.7149    0.0789 C   0  0  0  0  0  0  0  0  0  0  0  0
   -1.4631    0.7806    0.7692 H   0  0  0  0  0  0  0  0  0  0  0  0
   -1.2728    0.8700   -0.9697 H   0  0  0  0  0  0  0  0  0  0  0  0
   -0.1250   -1.3231    0.9478 H   0  0  0  0  0  0  0  0  0  0  0  0
    0.7143   -0.1612    0.0869 H   0  0  0  0  0  0  0  0  0  0  0  0
   -0.0091   -1.3376   -0.7113 H   0  0  0  0  0  0  0  0  0  0  0  0
  1  3  1  0  0  0  0
  1  5  1  0  0  0  0
  2  1  1  0  0  0  0
  2  8  1  0  0  0  0
  4  1  1  0  0  0  0
  6  2  1  0  0  0  0
  6  9  1  0  0  0  0
  6 10  1  0  0  0  0
  7  2  1  0  0  0  0
  9 13  1  0  0  0  0
  9 12  1  0  0  0  0
 11  6  1  0  0  0  0
 14  9  1  0  0  0  0
M  END
$$$$
