14
butane_opt
C  -3.949375   0.281150   0.020770
C  -2.699943  -0.607974   0.058711
H  -4.855424  -0.335748   0.100833
H  -3.930274   0.981849  -0.984681
H  -3.943455   0.785944   0.754956
C  -1.386198   0.172396   0.010874
H  -2.719333  -1.346406  -0.844281
H  -2.580806  -1.305769   0.963437
C  -0.188173  -0.696440   0.020103
H  -1.386710   0.826476   0.897828
H  -1.344958   0.814700  -0.898121
H  -0.280989  -1.136608   0.795108
H   0.776898  -0.021608   0.201428
H  -0.080845  -1.509278  -0.912690
