butane_opt
 OpenBabel08242015413D

 14 13  0  0  0  0  0  0  0  0999 V2000
   -3.9487    0.2904    0.0580 C   0  0  0  0  0  0  0  0  0  0  0  0
   -2.6949   -0.6341   -0.0169 C   0  0  0  0  0  0  0  0  0  0  0  0
   -4.8448   -0.2739    0.0767 H   0  0  0  0  0  0  0  0  0  0  0  0
   -3.9395    0.8502   -0.8046 H   0  0  0  0  0  0  0  0  0  0  0  0
   -4.0015    0.9846    0.9266 H   0  0  0  0  0  0  0  0  0  0  0  0
   -1.4005    0.1399   -0.0022 C   0  0  0  0  0  0  0  0  0  0  0  0
   -2.7254   -1.3503   -0.9007 H   0  0  0  0  0  0  0  0  0  0  0  0
   -2.6531   -1.1675    0.7922 H   0  0  0  0  0  0  0  0  0  0  0  0
   -0.1791   -0.6741    0.0693 C   0  0  0  0  0  0  0  0  0  0  0  0
   -1.3504    0.7805    0.7743 H   0  0  0  0  0  0  0  0  0  0  0  0
   -1.2848    0.8424   -0.9490 H   0  0  0  0  0  0  0  0  0  0  0  0
   -0.0711   -1.3799    1.0301 H   0  0  0  0  0  0  0  0  0  0  0  0
    0.7353   -0.0163   -0.1289 H   0  0  0  0  0  0  0  0  0  0  0  0
   -0.2245   -1.1996   -0.6525 H   0  0  0  0  0  0  0  0  0  0  0  0
  1  3  1  0  0  0  0
  1  5  1  0  0  0  0
  2  6  1  0  0  0  0
  2  1  1  0  0  0  0
  2  8  1  0  0  0  0
  4  1  1  0  0  0  0
  6  9  1  0  0  0  0
  6 10  1  0  0  0  0
  7  2  1  0  0  0  0
  9 12  1  0  0  0  0
 11  6  1  0  0  0  0
 13  9  1  0  0  0  0
 14  9  1  0  0  0  0
M  END
$$$$
