14
butane_opt
C  -3.966924   0.278656   0.055858
C  -2.701474  -0.629971   0.005432
H  -4.815838  -0.260825   0.140398
H  -4.123453   0.957616  -0.905987
H  -3.935089   0.845049   0.860147
C  -1.389549   0.180532  -0.034760
H  -2.810189  -1.341155  -0.833604
H  -2.681497  -1.197311   0.838813
C  -0.156160  -0.692271   0.065926
H  -1.405192   0.899374   0.827982
H  -1.269873   0.706873  -0.873354
H  -0.204379  -1.319950   0.956579
H   0.844731  -0.012607   0.095270
H  -0.067944  -1.368845  -0.799727
