butane_opt
 OpenBabel08242015413D

 14 13  0  0  0  0  0  0  0  0999 V2000
   -3.9525    0.2520   -0.0119 C   0  0  0  0  0  0  0  0  0  0  0  0
   -2.7161   -0.6036    0.0665 C   0  0  0  0  0  0  0  0  0  0  0  0
   -4.8607   -0.3605    0.1269 H   0  0  0  0  0  0  0  0  0  0  0  0
   -3.9659    1.1079   -1.0941 H   0  0  0  0  0  0  0  0  0  0  0  0
   -3.9525    0.7063    0.6757 H   0  0  0  0  0  0  0  0  0  0  0  0
   -1.4128    0.2030    0.0817 C   0  0  0  0  0  0  0  0  0  0  0  0
   -2.7184   -1.2958   -0.7732 H   0  0  0  0  0  0  0  0  0  0  0  0
   -2.6981   -1.2244    0.9160 H   0  0  0  0  0  0  0  0  0  0  0  0
   -0.1341   -0.7191   -0.0117 C   0  0  0  0  0  0  0  0  0  0  0  0
   -1.3483    0.9124    0.9494 H   0  0  0  0  0  0  0  0  0  0  0  0
   -1.4949    0.7643   -0.7929 H   0  0  0  0  0  0  0  0  0  0  0  0
   -0.0468   -1.2067    0.7972 H   0  0  0  0  0  0  0  0  0  0  0  0
    0.7986   -0.0585   -0.0415 H   0  0  0  0  0  0  0  0  0  0  0  0
   -0.1504   -1.3896   -0.8485 H   0  0  0  0  0  0  0  0  0  0  0  0
  1  2  1  0  0  0  0
  1  3  1  0  0  0  0
  1  5  1  0  0  0  0
  2  6  1  0  0  0  0
  2  8  1  0  0  0  0
  4  1  1  0  0  0  0
  6 10  1  0  0  0  0
  7  2  1  0  0  0  0
  9  6  1  0  0  0  0
  9 12  1  0  0  0  0
 11  6  1  0  0  0  0
 13  9  1  0  0  0  0
 14  9  1  0  0  0  0
M  END
$$$$
