14
butane_opt
C  -3.952507   0.252019  -0.011863
C  -2.716131  -0.603626   0.066535
H  -4.860696  -0.360540   0.126884
H  -3.965950   1.107932  -1.094146
H  -3.952472   0.706313   0.675728
C  -1.412758   0.203035   0.081709
H  -2.718380  -1.295832  -0.773246
H  -2.698138  -1.224374   0.916022
C  -0.134096  -0.719144  -0.011727
H  -1.348271   0.912440   0.949367
H  -1.494873   0.764294  -0.792910
H  -0.046834  -1.206701   0.797196
H   0.798627  -0.058540  -0.041472
H  -0.150357  -1.389578  -0.848503
