butane_opt
 OpenBabel08242015413D

 14 13  0  0  0  0  0  0  0  0999 V2000
   -3.9419    0.2568    0.0494 C   0  0  0  0  0  0  0  0  0  0  0  0
   -2.7158   -0.5987   -0.0090 C   0  0  0  0  0  0  0  0  0  0  0  0
   -4.9432   -0.4340    0.2545 H   0  0  0  0  0  0  0  0  0  0  0  0
   -3.9656    0.9710   -0.9278 H   0  0  0  0  0  0  0  0  0  0  0  0
   -3.9146    0.8272    0.7932 H   0  0  0  0  0  0  0  0  0  0  0  0
   -1.3989    0.1989   -0.0039 C   0  0  0  0  0  0  0  0  0  0  0  0
   -2.7572   -1.2820   -0.8346 H   0  0  0  0  0  0  0  0  0  0  0  0
   -2.7226   -1.2108    0.8534 H   0  0  0  0  0  0  0  0  0  0  0  0
   -0.1460   -0.7077    0.0521 C   0  0  0  0  0  0  0  0  0  0  0  0
   -1.4353    0.9620    0.8976 H   0  0  0  0  0  0  0  0  0  0  0  0
   -1.3807    0.8194   -0.8900 H   0  0  0  0  0  0  0  0  0  0  0  0
   -0.1387   -1.3676    0.9650 H   0  0  0  0  0  0  0  0  0  0  0  0
    0.7458   -0.1632    0.0463 H   0  0  0  0  0  0  0  0  0  0  0  0
   -0.0729   -1.3957   -0.7847 H   0  0  0  0  0  0  0  0  0  0  0  0
  1  3  1  0  0  0  0
  1  5  1  0  0  0  0
  2  6  1  0  0  0  0
  2  1  1  0  0  0  0
  2  8  1  0  0  0  0
  4  1  1  0  0  0  0
  6  9  1  0  0  0  0
  6 10  1  0  0  0  0
  7  2  1  0  0  0  0
  9 12  1  0  0  0  0
 11  6  1  0  0  0  0
 13  9  1  0  0  0  0
 14  9  1  0  0  0  0
M  END
$$$$
