butane_opt
 OpenBabel08242015413D

 14 13  0  0  0  0  0  0  0  0999 V2000
   -3.9209    0.2776    0.0761 C   0  0  0  0  0  0  0  0  0  0  0  0
   -2.6886   -0.6451   -0.0040 C   0  0  0  0  0  0  0  0  0  0  0  0
   -4.8033   -0.2934    0.0439 H   0  0  0  0  0  0  0  0  0  0  0  0
   -4.0139    0.8913   -0.8250 H   0  0  0  0  0  0  0  0  0  0  0  0
   -3.9327    0.9636    0.9083 H   0  0  0  0  0  0  0  0  0  0  0  0
   -1.4269    0.1702   -0.0522 C   0  0  0  0  0  0  0  0  0  0  0  0
   -2.8050   -1.3418   -0.9135 H   0  0  0  0  0  0  0  0  0  0  0  0
   -2.5617   -1.2132    0.8564 H   0  0  0  0  0  0  0  0  0  0  0  0
   -0.1724   -0.6846    0.0781 C   0  0  0  0  0  0  0  0  0  0  0  0
   -1.3921    0.8454    0.8181 H   0  0  0  0  0  0  0  0  0  0  0  0
   -1.3304    0.9113   -1.0107 H   0  0  0  0  0  0  0  0  0  0  0  0
   -0.2971   -1.2698    0.9809 H   0  0  0  0  0  0  0  0  0  0  0  0
    0.7396   -0.0464    0.1898 H   0  0  0  0  0  0  0  0  0  0  0  0
   -0.1211   -1.3476   -0.7949 H   0  0  0  0  0  0  0  0  0  0  0  0
  1  5  1  0  0  0  0
  2  1  1  0  0  0  0
  2  8  1  0  0  0  0
  3  1  1  0  0  0  0
  4  1  1  0  0  0  0
  6  2  1  0  0  0  0
  6  9  1  0  0  0  0
  6 10  1  0  0  0  0
  7  2  1  0  0  0  0
  9 13  1  0  0  0  0
  9 12  1  0  0  0  0
 11  6  1  0  0  0  0
 14  9  1  0  0  0  0
M  END
$$$$
