butane_opt
 OpenBabel08242015413D

 14 13  0  0  0  0  0  0  0  0999 V2000
   -3.9239    0.2856    0.0870 C   0  0  0  0  0  0  0  0  0  0  0  0
   -2.7045   -0.6463   -0.0039 C   0  0  0  0  0  0  0  0  0  0  0  0
   -4.7942   -0.2878    0.0109 H   0  0  0  0  0  0  0  0  0  0  0  0
   -3.9728    0.8874   -0.7953 H   0  0  0  0  0  0  0  0  0  0  0  0
   -4.0108    1.0403    0.9582 H   0  0  0  0  0  0  0  0  0  0  0  0
   -1.3975    0.1648   -0.0683 C   0  0  0  0  0  0  0  0  0  0  0  0
   -2.7183   -1.3921   -0.8943 H   0  0  0  0  0  0  0  0  0  0  0  0
   -2.6157   -1.2117    0.8224 H   0  0  0  0  0  0  0  0  0  0  0  0
   -0.1759   -0.6842    0.0794 C   0  0  0  0  0  0  0  0  0  0  0  0
   -1.4350    0.7616    0.7295 H   0  0  0  0  0  0  0  0  0  0  0  0
   -1.3192    0.8807   -0.9759 H   0  0  0  0  0  0  0  0  0  0  0  0
   -0.3225   -1.2316    0.9661 H   0  0  0  0  0  0  0  0  0  0  0  0
    0.7531   -0.0539    0.2276 H   0  0  0  0  0  0  0  0  0  0  0  0
   -0.1593   -1.3041   -0.7339 H   0  0  0  0  0  0  0  0  0  0  0  0
  1  5  1  0  0  0  0
  2  1  1  0  0  0  0
  2  8  1  0  0  0  0
  3  1  1  0  0  0  0
  4  1  1  0  0  0  0
  6  2  1  0  0  0  0
  6  9  1  0  0  0  0
  6 10  1  0  0  0  0
  7  2  1  0  0  0  0
  9 13  1  0  0  0  0
  9 12  1  0  0  0  0
 11  6  1  0  0  0  0
 14  9  1  0  0  0  0
M  END
$$$$
