butane_opt
 OpenBabel08242015413D

 14 13  0  0  0  0  0  0  0  0999 V2000
   -3.9494    0.2750    0.0498 C   0  0  0  0  0  0  0  0  0  0  0  0
   -2.6921   -0.6354   -0.0184 C   0  0  0  0  0  0  0  0  0  0  0  0
   -4.8249   -0.2904    0.2040 H   0  0  0  0  0  0  0  0  0  0  0  0
   -4.1000    0.9513   -0.8759 H   0  0  0  0  0  0  0  0  0  0  0  0
   -3.9431    0.8768    0.8735 H   0  0  0  0  0  0  0  0  0  0  0  0
   -1.3996    0.1731   -0.0101 C   0  0  0  0  0  0  0  0  0  0  0  0
   -2.7116   -1.3100   -0.8515 H   0  0  0  0  0  0  0  0  0  0  0  0
   -2.6850   -1.2638    0.8908 H   0  0  0  0  0  0  0  0  0  0  0  0
   -0.1642   -0.6858    0.0669 C   0  0  0  0  0  0  0  0  0  0  0  0
   -1.4291    0.9061    0.8600 H   0  0  0  0  0  0  0  0  0  0  0  0
   -1.3250    0.8318   -0.9118 H   0  0  0  0  0  0  0  0  0  0  0  0
   -0.1800   -1.2990    0.9653 H   0  0  0  0  0  0  0  0  0  0  0  0
    0.7714   -0.0732    0.0170 H   0  0  0  0  0  0  0  0  0  0  0  0
   -0.1340   -1.3214   -0.7998 H   0  0  0  0  0  0  0  0  0  0  0  0
  1  3  1  0  0  0  0
  1  5  1  0  0  0  0
  2  6  1  0  0  0  0
  2  1  1  0  0  0  0
  2  8  1  0  0  0  0
  4  1  1  0  0  0  0
  6  9  1  0  0  0  0
  6 10  1  0  0  0  0
  7  2  1  0  0  0  0
  9 12  1  0  0  0  0
 11  6  1  0  0  0  0
 13  9  1  0  0  0  0
 14  9  1  0  0  0  0
M  END
$$$$
