14
butane_opt
C  -3.920927   0.277598   0.076085
C  -2.688563  -0.645090  -0.003968
H  -4.803272  -0.293394   0.043877
H  -4.013859   0.891346  -0.824971
H  -3.932749   0.963565   0.908286
C  -1.426910   0.170216  -0.052181
H  -2.805044  -1.341820  -0.913536
H  -2.561714  -1.213244   0.856371
C  -0.172369  -0.684628   0.078077
H  -1.392081   0.845383   0.818137
H  -1.330368   0.911278  -1.010706
H  -0.297082  -1.269793   0.980900
H   0.739604  -0.046352   0.189797
H  -0.121083  -1.347627  -0.794884
