14
butane_opt
C  -3.961565   0.281115   0.006336
C  -2.688454  -0.629752   0.045853
H  -4.923233  -0.333173   0.243673
H  -4.079844   1.070870  -1.013995
H  -3.936245   0.732725   0.762659
C  -1.384441   0.172254   0.013441
H  -2.619357  -1.288459  -0.767665
H  -2.706824  -1.249108   0.926013
C  -0.169035  -0.682391   0.014272
H  -1.350131   0.972971   0.926917
H  -1.401733   0.674039  -0.780835
H  -0.180464  -1.233605   0.908133
H   0.764161  -0.045768   0.160169
H  -0.145594  -1.468838  -0.904494
