14
butane_opt
C  -3.976048   0.283666   0.052858
C  -2.706047  -0.636090  -0.018632
H  -4.892301  -0.292334  -0.036675
H  -3.967075   0.783065  -0.749463
H  -3.934392   1.070351   0.979688
C  -1.382623   0.171730  -0.013743
H  -2.738370  -1.275996  -0.828143
H  -2.716198  -1.282425   0.853434
C  -0.146058  -0.685668   0.070366
H  -1.386641   0.819719   0.843458
H  -1.322615   0.804107  -0.886788
H  -0.102773  -1.406675   1.075279
H   0.742382  -0.124077  -0.208093
H  -0.186073  -1.167174  -0.676624
