butane_opt
 OpenBabel08242015413D

 14 13  0  0  0  0  0  0  0  0999 V2000
   -3.9434    0.2548    0.0517 C   0  0  0  0  0  0  0  0  0  0  0  0
   -2.7058   -0.5815   -0.0020 C   0  0  0  0  0  0  0  0  0  0  0  0
   -4.9110   -0.3994    0.0049 H   0  0  0  0  0  0  0  0  0  0  0  0
   -3.8995    0.7464   -0.8029 H   0  0  0  0  0  0  0  0  0  0  0  0
   -3.9439    1.0152    0.9962 H   0  0  0  0  0  0  0  0  0  0  0  0
   -1.3959    0.1833   -0.0158 C   0  0  0  0  0  0  0  0  0  0  0  0
   -2.7417   -1.3938   -0.9339 H   0  0  0  0  0  0  0  0  0  0  0  0
   -2.6924   -1.1254    0.7863 H   0  0  0  0  0  0  0  0  0  0  0  0
   -0.1721   -0.7030    0.0790 C   0  0  0  0  0  0  0  0  0  0  0  0
   -1.3681    0.8219    0.8429 H   0  0  0  0  0  0  0  0  0  0  0  0
   -1.4402    0.8958   -0.9486 H   0  0  0  0  0  0  0  0  0  0  0  0
   -0.0223   -1.5515    1.1024 H   0  0  0  0  0  0  0  0  0  0  0  0
    0.7483   -0.0975   -0.2265 H   0  0  0  0  0  0  0  0  0  0  0  0
   -0.1528   -1.2219   -0.6991 H   0  0  0  0  0  0  0  0  0  0  0  0
  1  5  1  0  0  0  0
  2  1  1  0  0  0  0
  2  8  1  0  0  0  0
  3  1  1  0  0  0  0
  4  1  1  0  0  0  0
  6  2  1  0  0  0  0
  6  9  1  0  0  0  0
  6 10  1  0  0  0  0
  7  2  1  0  0  0  0
  9 12  1  0  0  0  0
 11  6  1  0  0  0  0
 13  9  1  0  0  0  0
 14  9  1  0  0  0  0
M  END
$$$$
