14
butane_opt
C  -3.936107   0.255564   0.039466
C  -2.697571  -0.582918   0.028842
H  -4.901357  -0.378341  -0.104628
H  -3.868036   0.654886  -0.744669
H  -3.922468   1.027472   0.999635
C  -1.419195   0.179065  -0.028879
H  -2.728257  -1.317431  -0.828413
H  -2.702611  -1.205631   0.937082
C  -0.155996  -0.690417   0.057726
H  -1.391018   0.775136   0.799907
H  -1.479657   0.931587  -1.035485
H  -0.132219  -1.336531   0.996882
H   0.712247  -0.162696   0.085874
H  -0.109981  -1.404791  -0.809076
