14
butane_opt
C  -3.918778   0.261642   0.075390
C  -2.702910  -0.614260  -0.036255
H  -4.880158  -0.398692   0.259626
H  -4.029048   0.973707  -0.896736
H  -3.773620   0.922104   0.905499
C  -1.406525   0.195467  -0.027350
H  -2.829920  -1.389415  -0.991550
H  -2.644850  -1.164454   0.788613
C  -0.183506  -0.697714   0.082807
H  -1.429120   0.803686   0.812192
H  -1.395208   0.900482  -0.958320
H  -0.212381  -1.399088   1.038740
H   0.721994  -0.147719   0.058962
H  -0.013158  -1.309487  -0.716625
