butane_opt
 OpenBabel08242015413D

 14 13  0  0  0  0  0  0  0  0999 V2000
   -3.9207    0.2580   -0.0247 C   0  0  0  0  0  0  0  0  0  0  0  0
   -2.7009   -0.6033    0.0956 C   0  0  0  0  0  0  0  0  0  0  0  0
   -4.8776   -0.4002   -0.0405 H   0  0  0  0  0  0  0  0  0  0  0  0
   -3.8408    0.8793   -0.9309 H   0  0  0  0  0  0  0  0  0  0  0  0
   -3.9812    0.9068    0.8289 H   0  0  0  0  0  0  0  0  0  0  0  0
   -1.4161    0.1950    0.0582 C   0  0  0  0  0  0  0  0  0  0  0  0
   -2.7056   -1.2810   -0.7882 H   0  0  0  0  0  0  0  0  0  0  0  0
   -2.7994   -1.1281    0.8984 H   0  0  0  0  0  0  0  0  0  0  0  0
   -0.1581   -0.7088   -0.0138 C   0  0  0  0  0  0  0  0  0  0  0  0
   -1.3980    0.9027    0.9423 H   0  0  0  0  0  0  0  0  0  0  0  0
   -1.4493    0.7650   -0.8101 H   0  0  0  0  0  0  0  0  0  0  0  0
   -0.0709   -1.4279    0.9593 H   0  0  0  0  0  0  0  0  0  0  0  0
    0.7393   -0.1228   -0.1099 H   0  0  0  0  0  0  0  0  0  0  0  0
   -0.2837   -1.2668   -0.8719 H   0  0  0  0  0  0  0  0  0  0  0  0
  1  2  1  0  0  0  0
  1  5  1  0  0  0  0
  2  8  1  0  0  0  0
  3  1  1  0  0  0  0
  4  1  1  0  0  0  0
  6  2  1  0  0  0  0
  6 10  1  0  0  0  0
  7  2  1  0  0  0  0
  9  6  1  0  0  0  0
  9 12  1  0  0  0  0
 11  6  1  0  0  0  0
 13  9  1  0  0  0  0
 14  9  1  0  0  0  0
M  END
$$$$
