butane_opt
 OpenBabel08242015413D

 14 13  0  0  0  0  0  0  0  0999 V2000
   -3.9556    0.2837    0.0597 C   0  0  0  0  0  0  0  0  0  0  0  0
   -2.7033   -0.6521    0.0026 C   0  0  0  0  0  0  0  0  0  0  0  0
   -4.8491   -0.2973   -0.0414 H   0  0  0  0  0  0  0  0  0  0  0  0
   -4.0375    0.8162   -0.7709 H   0  0  0  0  0  0  0  0  0  0  0  0
   -4.0559    1.1015    1.0110 H   0  0  0  0  0  0  0  0  0  0  0  0
   -1.3796    0.1673   -0.0424 C   0  0  0  0  0  0  0  0  0  0  0  0
   -2.8193   -1.3008   -0.8714 H   0  0  0  0  0  0  0  0  0  0  0  0
   -2.6331   -1.2715    0.9146 H   0  0  0  0  0  0  0  0  0  0  0  0
   -0.1591   -0.6718    0.0636 C   0  0  0  0  0  0  0  0  0  0  0  0
   -1.3979    0.8395    0.7722 H   0  0  0  0  0  0  0  0  0  0  0  0
   -1.3350    0.8451   -0.9879 H   0  0  0  0  0  0  0  0  0  0  0  0
   -0.1383   -1.3291    1.0500 H   0  0  0  0  0  0  0  0  0  0  0  0
    0.6909   -0.1037    0.1344 H   0  0  0  0  0  0  0  0  0  0  0  0
   -0.0779   -1.3108   -0.7591 H   0  0  0  0  0  0  0  0  0  0  0  0
  1  5  1  0  0  0  0
  2  1  1  0  0  0  0
  2  8  1  0  0  0  0
  3  1  1  0  0  0  0
  4  1  1  0  0  0  0
  6  2  1  0  0  0  0
  6  9  1  0  0  0  0
  6 10  1  0  0  0  0
  7  2  1  0  0  0  0
  9 13  1  0  0  0  0
  9 12  1  0  0  0  0
 11  6  1  0  0  0  0
 14  9  1  0  0  0  0
M  END
$$$$
