butane_opt
 OpenBabel08242015413D

 14 13  0  0  0  0  0  0  0  0999 V2000
   -3.9752    0.2709    0.0304 C   0  0  0  0  0  0  0  0  0  0  0  0
   -2.7078   -0.6289    0.0286 C   0  0  0  0  0  0  0  0  0  0  0  0
   -4.8375   -0.2443   -0.0787 H   0  0  0  0  0  0  0  0  0  0  0  0
   -3.9781    0.7731   -0.7876 H   0  0  0  0  0  0  0  0  0  0  0  0
   -4.0129    1.0662    0.9631 H   0  0  0  0  0  0  0  0  0  0  0  0
   -1.4056    0.1683   -0.0007 C   0  0  0  0  0  0  0  0  0  0  0  0
   -2.7127   -1.3175   -0.8574 H   0  0  0  0  0  0  0  0  0  0  0  0
   -2.6854   -1.1994    0.8858 H   0  0  0  0  0  0  0  0  0  0  0  0
   -0.1336   -0.6739    0.0585 C   0  0  0  0  0  0  0  0  0  0  0  0
   -1.3262    0.7277    0.7749 H   0  0  0  0  0  0  0  0  0  0  0  0
   -1.3804    0.8423   -0.9471 H   0  0  0  0  0  0  0  0  0  0  0  0
   -0.0687   -1.3622    0.9922 H   0  0  0  0  0  0  0  0  0  0  0  0
    0.7933   -0.0303   -0.1158 H   0  0  0  0  0  0  0  0  0  0  0  0
   -0.1663   -1.3537   -0.7739 H   0  0  0  0  0  0  0  0  0  0  0  0
  1  5  1  0  0  0  0
  2  1  1  0  0  0  0
  2  8  1  0  0  0  0
  3  1  1  0  0  0  0
  4  1  1  0  0  0  0
  6  2  1  0  0  0  0
  6  9  1  0  0  0  0
  6 10  1  0  0  0  0
  7  2  1  0  0  0  0
  9 12  1  0  0  0  0
 11  6  1  0  0  0  0
 13  9  1  0  0  0  0
 14  9  1  0  0  0  0
M  END
$$$$
