14
butane_opt
C  -3.956398   0.279033  -0.041987
C  -2.705982  -0.635925   0.067002
H  -4.818878  -0.300235   0.013162
H  -3.929421   0.909819  -0.948332
H  -4.061398   0.895377   0.806080
C  -1.403489   0.173145   0.092975
H  -2.647606  -1.212415  -0.683160
H  -2.754391  -1.267466   1.009620
C  -0.162191  -0.684462  -0.016895
H  -1.261794   0.913559   1.014790
H  -1.354624   0.736722  -0.773281
H   0.086584  -1.367200   0.870630
H   0.722355  -0.080327  -0.247826
H  -0.277594  -1.273118  -0.825674
