14
butane_opt
C  -3.955604   0.283740   0.059727
C  -2.703268  -0.652102   0.002602
H  -4.849106  -0.297254  -0.041415
H  -4.037529   0.816242  -0.770936
H  -4.055867   1.101483   1.011020
C  -1.379617   0.167306  -0.042433
H  -2.819291  -1.300759  -0.871408
H  -2.633148  -1.271461   0.914591
C  -0.159092  -0.671763   0.063608
H  -1.397864   0.839528   0.772209
H  -1.335007   0.845148  -0.987925
H  -0.138286  -1.329112   1.050008
H   0.690929  -0.103747   0.134449
H  -0.077915  -1.310801  -0.759081
