butane_opt
 OpenBabel08242015413D

 14 13  0  0  0  0  0  0  0  0999 V2000
   -3.9614    0.2839   -0.0186 C   0  0  0  0  0  0  0  0  0  0  0  0
   -2.7114   -0.6347    0.0753 C   0  0  0  0  0  0  0  0  0  0  0  0
   -4.8753   -0.3175    0.1647 H   0  0  0  0  0  0  0  0  0  0  0  0
   -3.9989    1.0749   -1.0898 H   0  0  0  0  0  0  0  0  0  0  0  0
   -3.9535    0.8201    0.7496 H   0  0  0  0  0  0  0  0  0  0  0  0
   -1.3946    0.1720    0.0683 C   0  0  0  0  0  0  0  0  0  0  0  0
   -2.7531   -1.3513   -0.7732 H   0  0  0  0  0  0  0  0  0  0  0  0
   -2.7515   -1.2147    0.8943 H   0  0  0  0  0  0  0  0  0  0  0  0
   -0.1350   -0.6885   -0.0162 C   0  0  0  0  0  0  0  0  0  0  0  0
   -1.2889    0.8426    0.9501 H   0  0  0  0  0  0  0  0  0  0  0  0
   -1.4368    0.7842   -0.7924 H   0  0  0  0  0  0  0  0  0  0  0  0
   -0.1604   -1.2601    0.8561 H   0  0  0  0  0  0  0  0  0  0  0  0
    0.7927   -0.0666    0.0595 H   0  0  0  0  0  0  0  0  0  0  0  0
   -0.1764   -1.3603   -0.8957 H   0  0  0  0  0  0  0  0  0  0  0  0
  1  2  1  0  0  0  0
  1  3  1  0  0  0  0
  1  5  1  0  0  0  0
  2  8  1  0  0  0  0
  4  1  1  0  0  0  0
  6  2  1  0  0  0  0
  6 10  1  0  0  0  0
  7  2  1  0  0  0  0
  9 13  1  0  0  0  0
  9  6  1  0  0  0  0
  9 12  1  0  0  0  0
 11  6  1  0  0  0  0
 14  9  1  0  0  0  0
M  END
$$$$
