14
butane_opt
C  -3.950494   0.273100  -0.020629
C  -2.674766  -0.621283   0.075409
H  -4.833698  -0.299247  -0.072805
H  -3.878303   0.805734  -0.838756
H  -4.073167   1.013655   0.895114
C  -1.405909   0.149748   0.031465
H  -2.673380  -1.150022  -0.658096
H  -2.743802  -1.337042   1.076030
C  -0.173583  -0.688039  -0.002574
H  -1.340373   0.865594   0.891799
H  -1.467232   0.803174  -0.856648
H  -0.186385  -1.146036   0.819311
H   0.779861  -0.015332   0.091374
H  -0.155871  -1.381252  -0.905849
