butane_opt
 OpenBabel08242015413D

 14 13  0  0  0  0  0  0  0  0999 V2000
   -3.9143    0.2445    0.0526 C   0  0  0  0  0  0  0  0  0  0  0  0
   -2.7008   -0.6030    0.0157 C   0  0  0  0  0  0  0  0  0  0  0  0
   -4.8218   -0.3923   -0.1622 H   0  0  0  0  0  0  0  0  0  0  0  0
   -3.9454    0.6979   -0.7255 H   0  0  0  0  0  0  0  0  0  0  0  0
   -3.9035    1.1739    1.0843 H   0  0  0  0  0  0  0  0  0  0  0  0
   -1.4209    0.2158   -0.0501 C   0  0  0  0  0  0  0  0  0  0  0  0
   -2.8025   -1.2885   -0.8658 H   0  0  0  0  0  0  0  0  0  0  0  0
   -2.6498   -1.2404    0.8913 H   0  0  0  0  0  0  0  0  0  0  0  0
   -0.1701   -0.7193    0.0670 C   0  0  0  0  0  0  0  0  0  0  0  0
   -1.3969    0.8482    0.8083 H   0  0  0  0  0  0  0  0  0  0  0  0
   -1.3974    0.8886   -0.9700 H   0  0  0  0  0  0  0  0  0  0  0  0
   -0.2205   -1.4351    1.0658 H   0  0  0  0  0  0  0  0  0  0  0  0
    0.7431   -0.1286    0.0156 H   0  0  0  0  0  0  0  0  0  0  0  0
   -0.1373   -1.2596   -0.7026 H   0  0  0  0  0  0  0  0  0  0  0  0
  1  5  1  0  0  0  0
  2  1  1  0  0  0  0
  2  8  1  0  0  0  0
  3  1  1  0  0  0  0
  4  1  1  0  0  0  0
  6  2  1  0  0  0  0
  6  9  1  0  0  0  0
  6 10  1  0  0  0  0
  7  2  1  0  0  0  0
  9 12  1  0  0  0  0
 11  6  1  0  0  0  0
 13  9  1  0  0  0  0
 14  9  1  0  0  0  0
M  END
$$$$
