butane_opt
 OpenBabel08242015413D

 14 13  0  0  0  0  0  0  0  0999 V2000
   -3.9420    0.2778    0.0286 C   0  0  0  0  0  0  0  0  0  0  0  0
   -2.6997   -0.6332    0.0163 C   0  0  0  0  0  0  0  0  0  0  0  0
   -4.8374   -0.2815   -0.0100 H   0  0  0  0  0  0  0  0  0  0  0  0
   -3.9894    0.8522   -0.8314 H   0  0  0  0  0  0  0  0  0  0  0  0
   -3.9670    0.9843    0.9269 H   0  0  0  0  0  0  0  0  0  0  0  0
   -1.4007    0.1733    0.0116 C   0  0  0  0  0  0  0  0  0  0  0  0
   -2.7202   -1.3389   -0.8529 H   0  0  0  0  0  0  0  0  0  0  0  0
   -2.6418   -1.2317    0.8845 H   0  0  0  0  0  0  0  0  0  0  0  0
   -0.1708   -0.6751    0.0472 C   0  0  0  0  0  0  0  0  0  0  0  0
   -1.3866    0.8025    0.8643 H   0  0  0  0  0  0  0  0  0  0  0  0
   -1.3295    0.8159   -0.8953 H   0  0  0  0  0  0  0  0  0  0  0  0
   -0.1028   -1.4281    1.0349 H   0  0  0  0  0  0  0  0  0  0  0  0
    0.7267   -0.0833   -0.1355 H   0  0  0  0  0  0  0  0  0  0  0  0
   -0.2250   -1.2713   -0.7855 H   0  0  0  0  0  0  0  0  0  0  0  0
  1  5  1  0  0  0  0
  2  1  1  0  0  0  0
  2  8  1  0  0  0  0
  3  1  1  0  0  0  0
  4  1  1  0  0  0  0
  6  2  1  0  0  0  0
  6  9  1  0  0  0  0
  6 10  1  0  0  0  0
  7  2  1  0  0  0  0
  9 12  1  0  0  0  0
 11  6  1  0  0  0  0
 13  9  1  0  0  0  0
 14  9  1  0  0  0  0
M  END
$$$$
