butane_opt
 OpenBabel08242015413D

 14 13  0  0  0  0  0  0  0  0999 V2000
   -3.9387    0.2666   -0.0468 C   0  0  0  0  0  0  0  0  0  0  0  0
   -2.7006   -0.6274    0.1226 C   0  0  0  0  0  0  0  0  0  0  0  0
   -4.8319   -0.2532   -0.1767 H   0  0  0  0  0  0  0  0  0  0  0  0
   -3.8064    0.8553   -0.9132 H   0  0  0  0  0  0  0  0  0  0  0  0
   -4.1765    1.0427    0.8772 H   0  0  0  0  0  0  0  0  0  0  0  0
   -1.3961    0.1598    0.0682 C   0  0  0  0  0  0  0  0  0  0  0  0
   -2.6122   -1.1841   -0.6623 H   0  0  0  0  0  0  0  0  0  0  0  0
   -2.7634   -1.3098    1.0340 H   0  0  0  0  0  0  0  0  0  0  0  0
   -0.1654   -0.6824   -0.0252 C   0  0  0  0  0  0  0  0  0  0  0  0
   -1.3587    0.8552    0.9080 H   0  0  0  0  0  0  0  0  0  0  0  0
   -1.4102    0.8248   -0.8143 H   0  0  0  0  0  0  0  0  0  0  0  0
   -0.1102   -1.2155    0.8236 H   0  0  0  0  0  0  0  0  0  0  0  0
    0.7870   -0.0589   -0.0697 H   0  0  0  0  0  0  0  0  0  0  0  0
   -0.3266   -1.4387   -0.9843 H   0  0  0  0  0  0  0  0  0  0  0  0
  1  2  1  0  0  0  0
  1  5  1  0  0  0  0
  2  8  1  0  0  0  0
  3  1  1  0  0  0  0
  4  1  1  0  0  0  0
  6  2  1  0  0  0  0
  6 10  1  0  0  0  0
  7  2  1  0  0  0  0
  9  6  1  0  0  0  0
  9 12  1  0  0  0  0
 11  6  1  0  0  0  0
 13  9  1  0  0  0  0
 14  9  1  0  0  0  0
M  END
$$$$
