butane_opt
 OpenBabel08242015413D

 14 13  0  0  0  0  0  0  0  0999 V2000
   -3.9371    0.2507    0.0660 C   0  0  0  0  0  0  0  0  0  0  0  0
   -2.7251   -0.5904    0.0082 C   0  0  0  0  0  0  0  0  0  0  0  0
   -4.8803   -0.3748    0.0267 H   0  0  0  0  0  0  0  0  0  0  0  0
   -3.9259    0.8431   -0.7897 H   0  0  0  0  0  0  0  0  0  0  0  0
   -3.9311    0.9666    0.9992 H   0  0  0  0  0  0  0  0  0  0  0  0
   -1.4192    0.2008   -0.0626 C   0  0  0  0  0  0  0  0  0  0  0  0
   -2.7599   -1.3054   -0.8611 H   0  0  0  0  0  0  0  0  0  0  0  0
   -2.7593   -1.2644    0.8926 H   0  0  0  0  0  0  0  0  0  0  0  0
   -0.1258   -0.7239    0.0749 C   0  0  0  0  0  0  0  0  0  0  0  0
   -1.4057    0.8693    0.7889 H   0  0  0  0  0  0  0  0  0  0  0  0
   -1.3659    0.8673   -0.9786 H   0  0  0  0  0  0  0  0  0  0  0  0
   -0.3012   -1.2132    0.9500 H   0  0  0  0  0  0  0  0  0  0  0  0
    0.7649   -0.1320    0.1825 H   0  0  0  0  0  0  0  0  0  0  0  0
    0.0374   -1.3848   -0.8119 H   0  0  0  0  0  0  0  0  0  0  0  0
  1  5  1  0  0  0  0
  2  1  1  0  0  0  0
  2  8  1  0  0  0  0
  3  1  1  0  0  0  0
  4  1  1  0  0  0  0
  6  2  1  0  0  0  0
  6  9  1  0  0  0  0
  6 10  1  0  0  0  0
  7  2  1  0  0  0  0
  9 13  1  0  0  0  0
  9 12  1  0  0  0  0
 11  6  1  0  0  0  0
 14  9  1  0  0  0  0
M  END
$$$$
