butane_opt
 OpenBabel08242015413D

 14 13  0  0  0  0  0  0  0  0999 V2000
   -3.9505    0.2731   -0.0206 C   0  0  0  0  0  0  0  0  0  0  0  0
   -2.6748   -0.6213    0.0754 C   0  0  0  0  0  0  0  0  0  0  0  0
   -4.8337   -0.2992   -0.0728 H   0  0  0  0  0  0  0  0  0  0  0  0
   -3.8783    0.8057   -0.8388 H   0  0  0  0  0  0  0  0  0  0  0  0
   -4.0732    1.0137    0.8951 H   0  0  0  0  0  0  0  0  0  0  0  0
   -1.4059    0.1497    0.0315 C   0  0  0  0  0  0  0  0  0  0  0  0
   -2.6734   -1.1500   -0.6581 H   0  0  0  0  0  0  0  0  0  0  0  0
   -2.7438   -1.3370    1.0760 H   0  0  0  0  0  0  0  0  0  0  0  0
   -0.1736   -0.6880   -0.0026 C   0  0  0  0  0  0  0  0  0  0  0  0
   -1.3404    0.8656    0.8918 H   0  0  0  0  0  0  0  0  0  0  0  0
   -1.4672    0.8032   -0.8566 H   0  0  0  0  0  0  0  0  0  0  0  0
   -0.1864   -1.1460    0.8193 H   0  0  0  0  0  0  0  0  0  0  0  0
    0.7799   -0.0153    0.0914 H   0  0  0  0  0  0  0  0  0  0  0  0
   -0.1559   -1.3813   -0.9058 H   0  0  0  0  0  0  0  0  0  0  0  0
  1  2  1  0  0  0  0
  1  5  1  0  0  0  0
  2  8  1  0  0  0  0
  3  1  1  0  0  0  0
  4  1  1  0  0  0  0
  6  2  1  0  0  0  0
  6 10  1  0  0  0  0
  7  2  1  0  0  0  0
  9  6  1  0  0  0  0
  9 13  1  0  0  0  0
  9 12  1  0  0  0  0
 11  6  1  0  0  0  0
 14  9  1  0  0  0  0
M  END
$$$$
