14
butane_opt
C  -3.923330   0.242344  -0.021834
C  -2.695762  -0.594825   0.080132
H  -4.893929  -0.384970   0.008106
H  -3.817517   0.984292  -1.011034
H  -3.991444   0.843963   0.739895
C  -1.435760   0.198897   0.081980
H  -2.721030  -1.322361  -0.772987
H  -2.668059  -1.198905   0.952380
C  -0.162150  -0.696902  -0.025781
H  -1.346952   0.914656   0.981945
H  -1.406141   0.813414  -0.806551
H   0.003219  -1.402431   0.931815
H   0.671039  -0.163777  -0.099146
H  -0.241028  -1.361491  -0.862369
