14
butane_opt
C  -3.927334   0.294157   0.043714
C  -2.683793  -0.654067   0.012816
H  -4.837545  -0.290222   0.055472
H  -3.928183   0.857199  -0.845146
H  -3.982998   1.035294   0.977695
C  -1.404870   0.165910  -0.033678
H  -2.756247  -1.243186  -0.767231
H  -2.667388  -1.355530   0.916158
C  -0.181117  -0.673273   0.064545
H  -1.389892   0.811625   0.796123
H  -1.359591   0.774230  -0.933575
H  -0.301293  -1.189976   0.905203
H   0.707601  -0.067733   0.154948
H  -0.149098  -1.392459  -0.867975
