butane_opt
 OpenBabel08242015413D

 14 13  0  0  0  0  0  0  0  0999 V2000
   -3.9619    0.2626   -0.0329 C   0  0  0  0  0  0  0  0  0  0  0  0
   -2.7062   -0.6105    0.0818 C   0  0  0  0  0  0  0  0  0  0  0  0
   -4.8907   -0.3884   -0.0503 H   0  0  0  0  0  0  0  0  0  0  0  0
   -3.8497    0.8579   -0.9722 H   0  0  0  0  0  0  0  0  0  0  0  0
   -4.0115    0.8420    0.7537 H   0  0  0  0  0  0  0  0  0  0  0  0
   -1.4056    0.2087    0.0897 C   0  0  0  0  0  0  0  0  0  0  0  0
   -2.6779   -1.2051   -0.7336 H   0  0  0  0  0  0  0  0  0  0  0  0
   -2.8069   -1.2526    1.0188 H   0  0  0  0  0  0  0  0  0  0  0  0
   -0.1320   -0.7064   -0.0324 C   0  0  0  0  0  0  0  0  0  0  0  0
   -1.3784    0.9966    1.0044 H   0  0  0  0  0  0  0  0  0  0  0  0
   -1.4455    0.6962   -0.7217 H   0  0  0  0  0  0  0  0  0  0  0  0
    0.0386   -1.4593    0.9620 H   0  0  0  0  0  0  0  0  0  0  0  0
    0.7465   -0.1705   -0.2165 H   0  0  0  0  0  0  0  0  0  0  0  0
   -0.2766   -1.2487   -0.8616 H   0  0  0  0  0  0  0  0  0  0  0  0
  1  2  1  0  0  0  0
  1  5  1  0  0  0  0
  2  6  1  0  0  0  0
  2  8  1  0  0  0  0
  3  1  1  0  0  0  0
  4  1  1  0  0  0  0
  6 10  1  0  0  0  0
  7  2  1  0  0  0  0
  9  6  1  0  0  0  0
  9 12  1  0  0  0  0
 11  6  1  0  0  0  0
 13  9  1  0  0  0  0
 14  9  1  0  0  0  0
M  END
$$$$
