butane_opt
 OpenBabel08242015413D

 14 13  0  0  0  0  0  0  0  0999 V2000
   -3.9606    0.2765   -0.0081 C   0  0  0  0  0  0  0  0  0  0  0  0
   -2.6919   -0.6463    0.0764 C   0  0  0  0  0  0  0  0  0  0  0  0
   -4.8246   -0.2535    0.0736 H   0  0  0  0  0  0  0  0  0  0  0  0
   -4.0885    1.0124   -1.0072 H   0  0  0  0  0  0  0  0  0  0  0  0
   -4.0147    0.9005    0.8082 H   0  0  0  0  0  0  0  0  0  0  0  0
   -1.3819    0.1765    0.0446 C   0  0  0  0  0  0  0  0  0  0  0  0
   -2.7304   -1.2690   -0.7707 H   0  0  0  0  0  0  0  0  0  0  0  0
   -2.8076   -1.2608    0.9871 H   0  0  0  0  0  0  0  0  0  0  0  0
   -0.1531   -0.6827    0.0003 C   0  0  0  0  0  0  0  0  0  0  0  0
   -1.3834    0.7722    0.8661 H   0  0  0  0  0  0  0  0  0  0  0  0
   -1.3110    0.8470   -0.8659 H   0  0  0  0  0  0  0  0  0  0  0  0
   -0.2198   -1.1346    0.8085 H   0  0  0  0  0  0  0  0  0  0  0  0
    0.7393   -0.0866    0.1518 H   0  0  0  0  0  0  0  0  0  0  0  0
   -0.1278   -1.4916   -1.0019 H   0  0  0  0  0  0  0  0  0  0  0  0
  1  3  1  0  0  0  0
  1  2  1  0  0  0  0
  1  5  1  0  0  0  0
  2  8  1  0  0  0  0
  4  1  1  0  0  0  0
  6  2  1  0  0  0  0
  6 10  1  0  0  0  0
  7  2  1  0  0  0  0
  9  6  1  0  0  0  0
  9 13  1  0  0  0  0
  9 12  1  0  0  0  0
 11  6  1  0  0  0  0
 14  9  1  0  0  0  0
M  END
$$$$
