butane_opt
 OpenBabel08242015413D

 14 13  0  0  0  0  0  0  0  0999 V2000
   -3.9304    0.2458   -0.0295 C   0  0  0  0  0  0  0  0  0  0  0  0
   -2.7222   -0.5782    0.0850 C   0  0  0  0  0  0  0  0  0  0  0  0
   -4.9221   -0.3772   -0.0294 H   0  0  0  0  0  0  0  0  0  0  0  0
   -3.9563    0.9299   -0.9851 H   0  0  0  0  0  0  0  0  0  0  0  0
   -4.0110    0.8063    0.7655 H   0  0  0  0  0  0  0  0  0  0  0  0
   -1.3991    0.2064    0.0769 C   0  0  0  0  0  0  0  0  0  0  0  0
   -2.7136   -1.2523   -0.7870 H   0  0  0  0  0  0  0  0  0  0  0  0
   -2.7596   -1.2822    1.0532 H   0  0  0  0  0  0  0  0  0  0  0  0
   -0.1432   -0.7212   -0.0029 C   0  0  0  0  0  0  0  0  0  0  0  0
   -1.3591    0.8904    0.9215 H   0  0  0  0  0  0  0  0  0  0  0  0
   -1.4454    0.8145   -0.8109 H   0  0  0  0  0  0  0  0  0  0  0  0
    0.0191   -1.2626    0.7781 H   0  0  0  0  0  0  0  0  0  0  0  0
    0.7529   -0.1431   -0.1019 H   0  0  0  0  0  0  0  0  0  0  0  0
   -0.2631   -1.4393   -0.9323 H   0  0  0  0  0  0  0  0  0  0  0  0
  1  3  1  0  0  0  0
  1  2  1  0  0  0  0
  1  5  1  0  0  0  0
  2  8  1  0  0  0  0
  4  1  1  0  0  0  0
  6  2  1  0  0  0  0
  6 10  1  0  0  0  0
  7  2  1  0  0  0  0
  9  6  1  0  0  0  0
  9 12  1  0  0  0  0
 11  6  1  0  0  0  0
 13  9  1  0  0  0  0
 14  9  1  0  0  0  0
M  END
$$$$
