14
butane_opt
C  -3.966875   0.271603   0.058296
C  -2.683845  -0.641287  -0.031345
H  -4.800808  -0.245716   0.083746
H  -4.017121   0.809938  -0.772266
H  -3.947291   1.040963   1.006306
C  -1.408904   0.169900  -0.011156
H  -2.652870  -1.341511  -0.914449
H  -2.704835  -1.157450   0.808110
C  -0.155169  -0.687267   0.072853
H  -1.353004   0.851930   0.826029
H  -1.373768   0.817630  -0.952384
H  -0.150978  -1.482586   1.110797
H   0.773281  -0.003122  -0.202863
H  -0.224301  -1.106035  -0.576297
