14
butane_opt
C  -3.955752   0.272754   0.042796
C  -2.683923  -0.618163  -0.010248
H  -4.864564  -0.249480   0.072653
H  -4.006572   0.849320  -0.883512
H  -3.926068   1.013655   0.936838
C  -1.389843   0.151337   0.013819
H  -2.796430  -1.384410  -0.943685
H  -2.666698  -1.178265   0.870257
C  -0.169578  -0.685418   0.065163
H  -1.422360   0.809664   0.839540
H  -1.326786   0.846890  -0.937276
H  -0.025325  -1.426463   1.026866
H   0.775053  -0.055673  -0.185954
H  -0.375027  -1.130950  -0.669934
