14
butane_opt
C  -3.906514   0.245478   0.063318
C  -2.690309  -0.598323  -0.034585
H  -4.841436  -0.417641   0.324008
H  -4.087567   0.963227  -0.874439
H  -3.842508   0.905593   0.934705
C  -1.437061   0.199912  -0.026307
H  -2.836770  -1.372516  -0.965758
H  -2.642165  -1.153525   0.744278
C  -0.167311  -0.705773   0.101920
H  -1.483264   0.827079   0.765892
H  -1.321293   0.891702  -0.986422
H  -0.126792  -1.342041   1.003262
H   0.727440  -0.141921   0.002673
H  -0.139842  -1.326959  -0.763385
