14
butane_opt
C  -3.953473   0.275659  -0.041121
C  -2.694360  -0.626150   0.068654
H  -4.853674  -0.279332   0.106013
H  -3.915059   0.992989  -1.002462
H  -3.941166   0.887468   0.789074
C  -1.413080   0.169664   0.102444
H  -2.586375  -1.275606  -0.766128
H  -2.810444  -1.314900   1.024802
C  -0.158978  -0.683943  -0.025620
H  -1.334794   0.875992   0.930041
H  -1.413435   0.687722  -0.721403
H  -0.079983  -1.338020   0.904308
H   0.823803  -0.040159  -0.195115
H  -0.285229  -1.270220  -0.873031
