butane_opt
 OpenBabel08242015413D

 14 13  0  0  0  0  0  0  0  0999 V2000
   -3.9527    0.2756   -0.0322 C   0  0  0  0  0  0  0  0  0  0  0  0
   -2.6951   -0.6210    0.1100 C   0  0  0  0  0  0  0  0  0  0  0  0
   -4.8164   -0.2908   -0.1022 H   0  0  0  0  0  0  0  0  0  0  0  0
   -3.8995    0.8545   -0.9525 H   0  0  0  0  0  0  0  0  0  0  0  0
   -4.1116    0.9096    0.8047 H   0  0  0  0  0  0  0  0  0  0  0  0
   -1.3862    0.1807    0.0455 C   0  0  0  0  0  0  0  0  0  0  0  0
   -2.7177   -1.2561   -0.7032 H   0  0  0  0  0  0  0  0  0  0  0  0
   -2.8216   -1.3137    1.0702 H   0  0  0  0  0  0  0  0  0  0  0  0
   -0.1708   -0.6904   -0.0223 C   0  0  0  0  0  0  0  0  0  0  0  0
   -1.3258    0.9922    0.9988 H   0  0  0  0  0  0  0  0  0  0  0  0
   -1.4209    0.6862   -0.8028 H   0  0  0  0  0  0  0  0  0  0  0  0
   -0.0513   -1.3170    0.8468 H   0  0  0  0  0  0  0  0  0  0  0  0
    0.7712   -0.0643    0.0004 H   0  0  0  0  0  0  0  0  0  0  0  0
   -0.1862   -1.3974   -0.9266 H   0  0  0  0  0  0  0  0  0  0  0  0
  1  2  1  0  0  0  0
  1  5  1  0  0  0  0
  2  8  1  0  0  0  0
  3  1  1  0  0  0  0
  4  1  1  0  0  0  0
  6  2  1  0  0  0  0
  6 10  1  0  0  0  0
  7  2  1  0  0  0  0
  9 13  1  0  0  0  0
  9  6  1  0  0  0  0
  9 12  1  0  0  0  0
 11  6  1  0  0  0  0
 14  9  1  0  0  0  0
M  END
$$$$
