butane_opt
 OpenBabel08242015413D

 14 13  0  0  0  0  0  0  0  0999 V2000
   -3.9522    0.2988   -0.0280 C   0  0  0  0  0  0  0  0  0  0  0  0
   -2.6944   -0.6660    0.0978 C   0  0  0  0  0  0  0  0  0  0  0  0
   -4.8186   -0.3100    0.0579 H   0  0  0  0  0  0  0  0  0  0  0  0
   -4.0760    1.0103   -0.9682 H   0  0  0  0  0  0  0  0  0  0  0  0
   -3.9999    0.8575    0.7255 H   0  0  0  0  0  0  0  0  0  0  0  0
   -1.3941    0.1838    0.0365 C   0  0  0  0  0  0  0  0  0  0  0  0
   -2.7281   -1.2472   -0.6529 H   0  0  0  0  0  0  0  0  0  0  0  0
   -2.7728   -1.3444    1.0588 H   0  0  0  0  0  0  0  0  0  0  0  0
   -0.1599   -0.6757   -0.0118 C   0  0  0  0  0  0  0  0  0  0  0  0
   -1.2653    0.8581    0.9148 H   0  0  0  0  0  0  0  0  0  0  0  0
   -1.4658    0.7366   -0.8155 H   0  0  0  0  0  0  0  0  0  0  0  0
   -0.2457   -1.0941    0.7440 H   0  0  0  0  0  0  0  0  0  0  0  0
    0.7859   -0.0379    0.2674 H   0  0  0  0  0  0  0  0  0  0  0  0
   -0.0463   -1.5843   -1.0596 H   0  0  0  0  0  0  0  0  0  0  0  0
  1  3  1  0  0  0  0
  1  2  1  0  0  0  0
  1  5  1  0  0  0  0
  2  8  1  0  0  0  0
  4  1  1  0  0  0  0
  6  2  1  0  0  0  0
  6 10  1  0  0  0  0
  7  2  1  0  0  0  0
  9  6  1  0  0  0  0
  9 13  1  0  0  0  0
  9 12  1  0  0  0  0
 11  6  1  0  0  0  0
 14  9  1  0  0  0  0
M  END
$$$$
