butane_opt
 OpenBabel08242015413D

 14 13  0  0  0  0  0  0  0  0999 V2000
   -3.9451    0.2570    0.0711 C   0  0  0  0  0  0  0  0  0  0  0  0
   -2.7163   -0.6015   -0.0071 C   0  0  0  0  0  0  0  0  0  0  0  0
   -4.8345   -0.3625    0.1367 H   0  0  0  0  0  0  0  0  0  0  0  0
   -4.0148    0.8267   -0.7900 H   0  0  0  0  0  0  0  0  0  0  0  0
   -3.9133    0.9370    0.9593 H   0  0  0  0  0  0  0  0  0  0  0  0
   -1.4002    0.2063   -0.0693 C   0  0  0  0  0  0  0  0  0  0  0  0
   -2.8857   -1.2972   -0.9061 H   0  0  0  0  0  0  0  0  0  0  0  0
   -2.6205   -1.1706    0.8336 H   0  0  0  0  0  0  0  0  0  0  0  0
   -0.1516   -0.7179    0.0968 C   0  0  0  0  0  0  0  0  0  0  0  0
   -1.4634    0.7785    0.7485 H   0  0  0  0  0  0  0  0  0  0  0  0
   -1.3266    0.9012   -1.0078 H   0  0  0  0  0  0  0  0  0  0  0  0
   -0.2486   -1.2334    0.9924 H   0  0  0  0  0  0  0  0  0  0  0  0
    0.8406   -0.0660    0.1875 H   0  0  0  0  0  0  0  0  0  0  0  0
   -0.0008   -1.5105   -0.8335 H   0  0  0  0  0  0  0  0  0  0  0  0
  1  3  1  0  0  0  0
  1  5  1  0  0  0  0
  2  1  1  0  0  0  0
  2  8  1  0  0  0  0
  4  1  1  0  0  0  0
  6  2  1  0  0  0  0
  6  9  1  0  0  0  0
  6 10  1  0  0  0  0
  7  2  1  0  0  0  0
  9 13  1  0  0  0  0
  9 12  1  0  0  0  0
 11  6  1  0  0  0  0
 14  9  1  0  0  0  0
M  END
$$$$
