butane_opt
 OpenBabel08242015413D

 14 13  0  0  0  0  0  0  0  0999 V2000
   -3.9382    0.2841    0.0167 C   0  0  0  0  0  0  0  0  0  0  0  0
   -2.6885   -0.6392    0.0560 C   0  0  0  0  0  0  0  0  0  0  0  0
   -4.7698   -0.2821   -0.2013 H   0  0  0  0  0  0  0  0  0  0  0  0
   -3.9276    0.7162   -0.7758 H   0  0  0  0  0  0  0  0  0  0  0  0
   -4.0657    1.1521    0.9732 H   0  0  0  0  0  0  0  0  0  0  0  0
   -1.3966    0.1743   -0.0005 C   0  0  0  0  0  0  0  0  0  0  0  0
   -2.7384   -1.2972   -0.7834 H   0  0  0  0  0  0  0  0  0  0  0  0
   -2.6573   -1.2585    0.9739 H   0  0  0  0  0  0  0  0  0  0  0  0
   -0.1896   -0.6873    0.0383 C   0  0  0  0  0  0  0  0  0  0  0  0
   -1.4058    0.7242    0.7762 H   0  0  0  0  0  0  0  0  0  0  0  0
   -1.3041    0.8276   -0.9219 H   0  0  0  0  0  0  0  0  0  0  0  0
   -0.1188   -1.2993    0.9200 H   0  0  0  0  0  0  0  0  0  0  0  0
    0.8129    0.0025   -0.0314 H   0  0  0  0  0  0  0  0  0  0  0  0
   -0.3003   -1.3233   -0.8003 H   0  0  0  0  0  0  0  0  0  0  0  0
  1  2  1  0  0  0  0
  1  5  1  0  0  0  0
  2  8  1  0  0  0  0
  3  1  1  0  0  0  0
  4  1  1  0  0  0  0
  6  9  1  0  0  0  0
  6  2  1  0  0  0  0
  6 10  1  0  0  0  0
  7  2  1  0  0  0  0
  9 12  1  0  0  0  0
 11  6  1  0  0  0  0
 13  9  1  0  0  0  0
 14  9  1  0  0  0  0
M  END
$$$$
