14
butane_opt
C  -3.938216   0.284128   0.016653
C  -2.688525  -0.639250   0.056010
H  -4.769837  -0.282081  -0.201253
H  -3.927567   0.716221  -0.775800
H  -4.065711   1.152064   0.973167
C  -1.396558   0.174273  -0.000540
H  -2.738373  -1.297215  -0.783422
H  -2.657318  -1.258508   0.973884
C  -0.189616  -0.687296   0.038252
H  -1.405751   0.724151   0.776161
H  -1.304057   0.827590  -0.921866
H  -0.118833  -1.299324   0.920030
H   0.812908   0.002453  -0.031354
H  -0.300271  -1.323286  -0.800267
