14
butane_opt
C  -3.932475   0.247011   0.072077
C  -2.700880  -0.579246  -0.019382
H  -4.870015  -0.397469   0.138392
H  -3.985439   0.817735  -0.801314
H  -3.848734   0.911926   0.955252
C  -1.410330   0.197326  -0.039895
H  -2.744246  -1.338489  -0.954278
H  -2.681787  -1.197207   0.883674
C  -0.162013  -0.717086   0.087863
H  -1.439577   0.777754   0.710476
H  -1.483317   0.933630  -1.039072
H  -0.227339  -1.265805   0.950905
H   0.766276  -0.112568   0.177616
H  -0.032378  -1.379757  -0.779797
