butane_opt
 OpenBabel08242015413D

 14 13  0  0  0  0  0  0  0  0999 V2000
   -3.9603    0.2888   -0.0332 C   0  0  0  0  0  0  0  0  0  0  0  0
   -2.6892   -0.6524    0.0761 C   0  0  0  0  0  0  0  0  0  0  0  0
   -4.8499   -0.3171    0.0911 H   0  0  0  0  0  0  0  0  0  0  0  0
   -3.9779    0.9847   -0.9635 H   0  0  0  0  0  0  0  0  0  0  0  0
   -4.1202    0.8684    0.7484 H   0  0  0  0  0  0  0  0  0  0  0  0
   -1.3926    0.1725    0.0772 C   0  0  0  0  0  0  0  0  0  0  0  0
   -2.6207   -1.3288   -0.7630 H   0  0  0  0  0  0  0  0  0  0  0  0
   -2.7613   -1.2511    0.9601 H   0  0  0  0  0  0  0  0  0  0  0  0
   -0.1648   -0.6609   -0.0172 C   0  0  0  0  0  0  0  0  0  0  0  0
   -1.3269    0.9447    0.9506 H   0  0  0  0  0  0  0  0  0  0  0  0
   -1.4226    0.6783   -0.7081 H   0  0  0  0  0  0  0  0  0  0  0  0
    0.0069   -1.4034    0.9502 H   0  0  0  0  0  0  0  0  0  0  0  0
    0.7567   -0.0813   -0.2086 H   0  0  0  0  0  0  0  0  0  0  0  0
   -0.2337   -1.3321   -0.8425 H   0  0  0  0  0  0  0  0  0  0  0  0
  1  2  1  0  0  0  0
  1  3  1  0  0  0  0
  1  5  1  0  0  0  0
  2  6  1  0  0  0  0
  2  8  1  0  0  0  0
  4  1  1  0  0  0  0
  6 10  1  0  0  0  0
  7  2  1  0  0  0  0
  9  6  1  0  0  0  0
  9 12  1  0  0  0  0
 11  6  1  0  0  0  0
 13  9  1  0  0  0  0
 14  9  1  0  0  0  0
M  END
$$$$
