butane_opt
 OpenBabel08242015413D

 14 13  0  0  0  0  0  0  0  0999 V2000
   -3.9088    0.2534    0.0581 C   0  0  0  0  0  0  0  0  0  0  0  0
   -2.7033   -0.6010    0.0021 C   0  0  0  0  0  0  0  0  0  0  0  0
   -4.8784   -0.4330    0.0244 H   0  0  0  0  0  0  0  0  0  0  0  0
   -4.0127    0.8444   -0.8126 H   0  0  0  0  0  0  0  0  0  0  0  0
   -3.8560    1.0041    0.9996 H   0  0  0  0  0  0  0  0  0  0  0  0
   -1.4104    0.1979   -0.0643 C   0  0  0  0  0  0  0  0  0  0  0  0
   -2.7717   -1.2021   -0.7629 H   0  0  0  0  0  0  0  0  0  0  0  0
   -2.6795   -1.3052    0.9203 H   0  0  0  0  0  0  0  0  0  0  0  0
   -0.1767   -0.6976    0.0880 C   0  0  0  0  0  0  0  0  0  0  0  0
   -1.4568    0.8288    0.7731 H   0  0  0  0  0  0  0  0  0  0  0  0
   -1.3861    0.8562   -0.9496 H   0  0  0  0  0  0  0  0  0  0  0  0
   -0.2007   -1.2055    0.8708 H   0  0  0  0  0  0  0  0  0  0  0  0
    0.6408   -0.1712    0.2176 H   0  0  0  0  0  0  0  0  0  0  0  0
   -0.0190   -1.5359   -0.8698 H   0  0  0  0  0  0  0  0  0  0  0  0
  1  5  1  0  0  0  0
  2  1  1  0  0  0  0
  2  8  1  0  0  0  0
  3  1  1  0  0  0  0
  4  1  1  0  0  0  0
  6  2  1  0  0  0  0
  6  9  1  0  0  0  0
  6 10  1  0  0  0  0
  7  2  1  0  0  0  0
  9 13  1  0  0  0  0
  9 12  1  0  0  0  0
 11  6  1  0  0  0  0
 14  9  1  0  0  0  0
M  END
$$$$
