butane_opt
 OpenBabel08242015413D

 14 13  0  0  0  0  0  0  0  0999 V2000
   -3.9220    0.2845   -0.0375 C   0  0  0  0  0  0  0  0  0  0  0  0
   -2.6929   -0.6276    0.0812 C   0  0  0  0  0  0  0  0  0  0  0  0
   -4.8612   -0.3346    0.1416 H   0  0  0  0  0  0  0  0  0  0  0  0
   -3.9788    1.0167   -1.0216 H   0  0  0  0  0  0  0  0  0  0  0  0
   -3.9823    0.8122    0.7197 H   0  0  0  0  0  0  0  0  0  0  0  0
   -1.3918    0.1651    0.0676 C   0  0  0  0  0  0  0  0  0  0  0  0
   -2.6283   -1.2931   -0.7642 H   0  0  0  0  0  0  0  0  0  0  0  0
   -2.7192   -1.2815    1.0082 H   0  0  0  0  0  0  0  0  0  0  0  0
   -0.1985   -0.6743   -0.0222 C   0  0  0  0  0  0  0  0  0  0  0  0
   -1.2615    0.9248    0.9963 H   0  0  0  0  0  0  0  0  0  0  0  0
   -1.5095    0.6598   -0.6612 H   0  0  0  0  0  0  0  0  0  0  0  0
   -0.1278   -1.2725    0.8941 H   0  0  0  0  0  0  0  0  0  0  0  0
    0.7168   -0.1296   -0.0756 H   0  0  0  0  0  0  0  0  0  0  0  0
   -0.2070   -1.3422   -0.8733 H   0  0  0  0  0  0  0  0  0  0  0  0
  1  2  1  0  0  0  0
  1  3  1  0  0  0  0
  1  5  1  0  0  0  0
  2  8  1  0  0  0  0
  4  1  1  0  0  0  0
  6  2  1  0  0  0  0
  6 10  1  0  0  0  0
  7  2  1  0  0  0  0
  9  6  1  0  0  0  0
  9 12  1  0  0  0  0
 11  6  1  0  0  0  0
 13  9  1  0  0  0  0
 14  9  1  0  0  0  0
M  END
$$$$
