14
butane_opt
C  -3.930376   0.264764   0.044174
C  -2.692152  -0.615587   0.008017
H  -4.886916  -0.357272   0.002505
H  -3.943851   0.817956  -0.790476
H  -3.975710   0.998135   0.949827
C  -1.408227   0.189842  -0.016353
H  -2.747812  -1.326468  -0.879320
H  -2.671415  -1.233501   0.890309
C  -0.175629  -0.702134   0.053591
H  -1.395122   0.929137   0.846773
H  -1.331782   0.809177  -0.904260
H  -0.135230  -1.435072   1.025343
H   0.721266  -0.120831  -0.057558
H  -0.167299  -1.205577  -0.696786
