butane_opt
 OpenBabel08242015413D

 14 13  0  0  0  0  0  0  0  0999 V2000
   -3.9686    0.2734    0.0116 C   0  0  0  0  0  0  0  0  0  0  0  0
   -2.6981   -0.6407    0.0580 C   0  0  0  0  0  0  0  0  0  0  0  0
   -4.8750   -0.2707   -0.1530 H   0  0  0  0  0  0  0  0  0  0  0  0
   -3.9089    0.6970   -0.7558 H   0  0  0  0  0  0  0  0  0  0  0  0
   -4.0698    1.1411    1.0014 H   0  0  0  0  0  0  0  0  0  0  0  0
   -1.3962    0.1780    0.0097 C   0  0  0  0  0  0  0  0  0  0  0  0
   -2.6575   -1.3622   -0.8178 H   0  0  0  0  0  0  0  0  0  0  0  0
   -2.7444   -1.2570    0.9406 H   0  0  0  0  0  0  0  0  0  0  0  0
   -0.1472   -0.6674    0.0321 C   0  0  0  0  0  0  0  0  0  0  0  0
   -1.3989    0.8109    0.7752 H   0  0  0  0  0  0  0  0  0  0  0  0
   -1.3536    0.9279   -0.9628 H   0  0  0  0  0  0  0  0  0  0  0  0
   -0.0745   -1.3910    1.0118 H   0  0  0  0  0  0  0  0  0  0  0  0
    0.7006   -0.1197   -0.1016 H   0  0  0  0  0  0  0  0  0  0  0  0
   -0.1298   -1.3788   -0.8089 H   0  0  0  0  0  0  0  0  0  0  0  0
  1  2  1  0  0  0  0
  1  5  1  0  0  0  0
  2  8  1  0  0  0  0
  3  1  1  0  0  0  0
  4  1  1  0  0  0  0
  6  9  1  0  0  0  0
  6  2  1  0  0  0  0
  6 10  1  0  0  0  0
  7  2  1  0  0  0  0
  9 12  1  0  0  0  0
 11  6  1  0  0  0  0
 13  9  1  0  0  0  0
 14  9  1  0  0  0  0
M  END
$$$$
