butane_opt
 OpenBabel08242015413D

 14 13  0  0  0  0  0  0  0  0999 V2000
   -3.9639    0.2316   -0.0455 C   0  0  0  0  0  0  0  0  0  0  0  0
   -2.6980   -0.5831    0.1179 C   0  0  0  0  0  0  0  0  0  0  0  0
   -4.8628   -0.3580   -0.1576 H   0  0  0  0  0  0  0  0  0  0  0  0
   -3.8554    0.8263   -0.9293 H   0  0  0  0  0  0  0  0  0  0  0  0
   -4.0549    0.9854    0.8741 H   0  0  0  0  0  0  0  0  0  0  0  0
   -1.4058    0.2168    0.0566 C   0  0  0  0  0  0  0  0  0  0  0  0
   -2.7873   -1.2114   -0.6810 H   0  0  0  0  0  0  0  0  0  0  0  0
   -2.8008   -1.3280    1.1261 H   0  0  0  0  0  0  0  0  0  0  0  0
   -0.1317   -0.7121   -0.0398 C   0  0  0  0  0  0  0  0  0  0  0  0
   -1.3307    0.9134    0.9628 H   0  0  0  0  0  0  0  0  0  0  0  0
   -1.5241    0.7765   -0.8015 H   0  0  0  0  0  0  0  0  0  0  0  0
   -0.0903   -1.3396    0.8394 H   0  0  0  0  0  0  0  0  0  0  0  0
    0.7176   -0.1161    0.0818 H   0  0  0  0  0  0  0  0  0  0  0  0
   -0.0405   -1.4619   -0.9444 H   0  0  0  0  0  0  0  0  0  0  0  0
  1  2  1  0  0  0  0
  1  5  1  0  0  0  0
  2  8  1  0  0  0  0
  3  1  1  0  0  0  0
  4  1  1  0  0  0  0
  6  2  1  0  0  0  0
  6 10  1  0  0  0  0
  7  2  1  0  0  0  0
  9  6  1  0  0  0  0
  9 13  1  0  0  0  0
  9 12  1  0  0  0  0
 11  6  1  0  0  0  0
 14  9  1  0  0  0  0
M  END
$$$$
