butane_opt
 OpenBabel08242015413D

 14 13  0  0  0  0  0  0  0  0999 V2000
   -3.9479    0.2587    0.0337 C   0  0  0  0  0  0  0  0  0  0  0  0
   -2.7008   -0.6179    0.0380 C   0  0  0  0  0  0  0  0  0  0  0  0
   -4.8293   -0.2904   -0.0647 H   0  0  0  0  0  0  0  0  0  0  0  0
   -3.9449    0.7224   -0.7830 H   0  0  0  0  0  0  0  0  0  0  0  0
   -4.0543    1.0763    0.9811 H   0  0  0  0  0  0  0  0  0  0  0  0
   -1.4043    0.1930   -0.0169 C   0  0  0  0  0  0  0  0  0  0  0  0
   -2.7268   -1.3278   -0.8629 H   0  0  0  0  0  0  0  0  0  0  0  0
   -2.6711   -1.2042    0.8745 H   0  0  0  0  0  0  0  0  0  0  0  0
   -0.1542   -0.6897    0.0507 C   0  0  0  0  0  0  0  0  0  0  0  0
   -1.3913    0.7982    0.7987 H   0  0  0  0  0  0  0  0  0  0  0  0
   -1.3808    0.8596   -0.9628 H   0  0  0  0  0  0  0  0  0  0  0  0
   -0.1556   -1.3980    1.0132 H   0  0  0  0  0  0  0  0  0  0  0  0
    0.7615   -0.1114   -0.0108 H   0  0  0  0  0  0  0  0  0  0  0  0
   -0.1415   -1.3261   -0.7828 H   0  0  0  0  0  0  0  0  0  0  0  0
  1  2  1  0  0  0  0
  1  5  1  0  0  0  0
  2  8  1  0  0  0  0
  3  1  1  0  0  0  0
  4  1  1  0  0  0  0
  6  2  1  0  0  0  0
  6  9  1  0  0  0  0
  6 10  1  0  0  0  0
  7  2  1  0  0  0  0
  9 12  1  0  0  0  0
 11  6  1  0  0  0  0
 13  9  1  0  0  0  0
 14  9  1  0  0  0  0
M  END
$$$$
