14
butane_opt
C  -3.960319   0.288782  -0.033220
C  -2.689247  -0.652408   0.076117
H  -4.849878  -0.317096   0.091120
H  -3.977891   0.984652  -0.963516
H  -4.120189   0.868360   0.748423
C  -1.392612   0.172505   0.077202
H  -2.620652  -1.328843  -0.762967
H  -2.761266  -1.251128   0.960099
C  -0.164831  -0.660862  -0.017224
H  -1.326903   0.944749   0.950568
H  -1.422557   0.678289  -0.708092
H   0.006934  -1.403439   0.950227
H   0.756721  -0.081344  -0.208633
H  -0.233684  -1.332060  -0.842502
