14
butane_opt
C  -3.963859   0.231624  -0.045528
C  -2.697985  -0.583056   0.117911
H  -4.862796  -0.357964  -0.157626
H  -3.855422   0.826310  -0.929307
H  -4.054901   0.985356   0.874081
C  -1.405756   0.216842   0.056558
H  -2.787330  -1.211394  -0.680954
H  -2.800837  -1.328016   1.126082
C  -0.131705  -0.712115  -0.039766
H  -1.330682   0.913448   0.962834
H  -1.524150   0.776457  -0.801494
H  -0.090279  -1.339617   0.839443
H   0.717635  -0.116074   0.081799
H  -0.040486  -1.461923  -0.944397
