14
butane_opt
C  -3.908777   0.253446   0.058142
C  -2.703321  -0.600984   0.002137
H  -4.878445  -0.433037   0.024398
H  -4.012661   0.844434  -0.812577
H  -3.856034   1.004057   0.999558
C  -1.410409   0.197872  -0.064306
H  -2.771682  -1.202099  -0.762923
H  -2.679480  -1.305216   0.920279
C  -0.176737  -0.697644   0.088048
H  -1.456782   0.828848   0.773058
H  -1.386112   0.856152  -0.949624
H  -0.200684  -1.205508   0.870809
H   0.640787  -0.171191   0.217615
H  -0.019028  -1.535929  -0.869764
