butane_opt
 OpenBabel08242015413D

 14 13  0  0  0  0  0  0  0  0999 V2000
   -3.9690    0.2455   -0.0418 C   0  0  0  0  0  0  0  0  0  0  0  0
   -2.7102   -0.5987    0.0677 C   0  0  0  0  0  0  0  0  0  0  0  0
   -4.9429   -0.3766    0.0341 H   0  0  0  0  0  0  0  0  0  0  0  0
   -3.9750    0.8804   -0.9505 H   0  0  0  0  0  0  0  0  0  0  0  0
   -3.9837    0.9586    0.8205 H   0  0  0  0  0  0  0  0  0  0  0  0
   -1.3977    0.2068    0.0873 C   0  0  0  0  0  0  0  0  0  0  0  0
   -2.6479   -1.2754   -0.7260 H   0  0  0  0  0  0  0  0  0  0  0  0
   -2.7049   -1.2847    1.0125 H   0  0  0  0  0  0  0  0  0  0  0  0
   -0.1293   -0.7059   -0.0196 C   0  0  0  0  0  0  0  0  0  0  0  0
   -1.3098    0.9519    1.0104 H   0  0  0  0  0  0  0  0  0  0  0  0
   -1.4222    0.7952   -0.7678 H   0  0  0  0  0  0  0  0  0  0  0  0
   -0.0330   -1.4480    0.9463 H   0  0  0  0  0  0  0  0  0  0  0  0
    0.7225   -0.1460   -0.2521 H   0  0  0  0  0  0  0  0  0  0  0  0
   -0.2296   -1.3097   -0.8050 H   0  0  0  0  0  0  0  0  0  0  0  0
  1  3  1  0  0  0  0
  1  2  1  0  0  0  0
  1  5  1  0  0  0  0
  2  6  1  0  0  0  0
  2  8  1  0  0  0  0
  4  1  1  0  0  0  0
  6 10  1  0  0  0  0
  7  2  1  0  0  0  0
  9  6  1  0  0  0  0
  9 12  1  0  0  0  0
 11  6  1  0  0  0  0
 13  9  1  0  0  0  0
 14  9  1  0  0  0  0
M  END
$$$$
