14
butane_opt
C  -3.975907   0.282403  -0.021334
C  -2.689332  -0.634924   0.072078
H  -4.925894  -0.305315   0.007233
H  -3.949866   0.965526  -0.961220
H  -4.130226   0.931328   0.772084
C  -1.395423   0.174244   0.062717
H  -2.676379  -1.278170  -0.746196
H  -2.704088  -1.420796   1.040671
C  -0.141316  -0.677899  -0.013404
H  -1.257716   0.919519   0.971596
H  -1.415330   0.692480  -0.760546
H  -0.130306  -1.287478   0.877860
H   0.796891  -0.045944  -0.081051
H  -0.203184  -1.361214  -0.882185
