butane_opt
 OpenBabel08242015413D

 14 13  0  0  0  0  0  0  0  0999 V2000
   -3.9612    0.2688    0.0571 C   0  0  0  0  0  0  0  0  0  0  0  0
   -2.6888   -0.6409    0.0086 C   0  0  0  0  0  0  0  0  0  0  0  0
   -4.8028   -0.2882   -0.1850 H   0  0  0  0  0  0  0  0  0  0  0  0
   -4.0450    0.6913   -0.7202 H   0  0  0  0  0  0  0  0  0  0  0  0
   -4.0521    1.1881    1.0713 H   0  0  0  0  0  0  0  0  0  0  0  0
   -1.3860    0.1826   -0.0303 C   0  0  0  0  0  0  0  0  0  0  0  0
   -2.7285   -1.3694   -0.8750 H   0  0  0  0  0  0  0  0  0  0  0  0
   -2.6994   -1.1814    0.8648 H   0  0  0  0  0  0  0  0  0  0  0  0
   -0.1522   -0.6755    0.0760 C   0  0  0  0  0  0  0  0  0  0  0  0
   -1.3759    0.7190    0.7241 H   0  0  0  0  0  0  0  0  0  0  0  0
   -1.4496    0.9084   -1.0151 H   0  0  0  0  0  0  0  0  0  0  0  0
   -0.1251   -1.4012    1.0658 H   0  0  0  0  0  0  0  0  0  0  0  0
    0.7058   -0.1581   -0.0715 H   0  0  0  0  0  0  0  0  0  0  0  0
   -0.1841   -1.2012   -0.7174 H   0  0  0  0  0  0  0  0  0  0  0  0
  1  5  1  0  0  0  0
  2  1  1  0  0  0  0
  2  8  1  0  0  0  0
  3  1  1  0  0  0  0
  4  1  1  0  0  0  0
  6  2  1  0  0  0  0
  6  9  1  0  0  0  0
  6 10  1  0  0  0  0
  7  2  1  0  0  0  0
  9 12  1  0  0  0  0
 11  6  1  0  0  0  0
 13  9  1  0  0  0  0
 14  9  1  0  0  0  0
M  END
$$$$
