butane_opt
 OpenBabel08242015413D

 14 13  0  0  0  0  0  0  0  0999 V2000
   -3.9437    0.2721    0.0450 C   0  0  0  0  0  0  0  0  0  0  0  0
   -2.7138   -0.6310    0.0089 C   0  0  0  0  0  0  0  0  0  0  0  0
   -4.7899   -0.3097    0.0285 H   0  0  0  0  0  0  0  0  0  0  0  0
   -3.9812    0.8608   -0.8251 H   0  0  0  0  0  0  0  0  0  0  0  0
   -4.0358    0.9757    0.9233 H   0  0  0  0  0  0  0  0  0  0  0  0
   -1.3935    0.1987    0.0080 C   0  0  0  0  0  0  0  0  0  0  0  0
   -2.7075   -1.4404   -0.9393 H   0  0  0  0  0  0  0  0  0  0  0  0
   -2.7255   -1.1826    0.8308 H   0  0  0  0  0  0  0  0  0  0  0  0
   -0.1670   -0.7013    0.0496 C   0  0  0  0  0  0  0  0  0  0  0  0
   -1.3554    0.8631    0.8132 H   0  0  0  0  0  0  0  0  0  0  0  0
   -1.3769    0.8930   -0.9275 H   0  0  0  0  0  0  0  0  0  0  0  0
   -0.1248   -1.4904    1.0912 H   0  0  0  0  0  0  0  0  0  0  0  0
    0.8194   -0.0338   -0.1625 H   0  0  0  0  0  0  0  0  0  0  0  0
   -0.1371   -1.2541   -0.7069 H   0  0  0  0  0  0  0  0  0  0  0  0
  1  5  1  0  0  0  0
  2  1  1  0  0  0  0
  2  8  1  0  0  0  0
  3  1  1  0  0  0  0
  4  1  1  0  0  0  0
  6  2  1  0  0  0  0
  6  9  1  0  0  0  0
  6 10  1  0  0  0  0
  7  2  1  0  0  0  0
  9 12  1  0  0  0  0
 11  6  1  0  0  0  0
 13  9  1  0  0  0  0
 14  9  1  0  0  0  0
M  END
$$$$
