butane_opt
 OpenBabel08242015413D

 14 13  0  0  0  0  0  0  0  0999 V2000
   -3.9285    0.2646    0.0532 C   0  0  0  0  0  0  0  0  0  0  0  0
   -2.6934   -0.6369   -0.0217 C   0  0  0  0  0  0  0  0  0  0  0  0
   -4.8263   -0.2951    0.0578 H   0  0  0  0  0  0  0  0  0  0  0  0
   -4.0062    0.8628   -0.8012 H   0  0  0  0  0  0  0  0  0  0  0  0
   -3.9893    1.0732    1.0215 H   0  0  0  0  0  0  0  0  0  0  0  0
   -1.4112    0.1699   -0.0020 C   0  0  0  0  0  0  0  0  0  0  0  0
   -2.6979   -1.3584   -0.9305 H   0  0  0  0  0  0  0  0  0  0  0  0
   -2.6174   -1.1549    0.8080 H   0  0  0  0  0  0  0  0  0  0  0  0
   -0.1705   -0.6749    0.0629 C   0  0  0  0  0  0  0  0  0  0  0  0
   -1.4105    0.8181    0.7890 H   0  0  0  0  0  0  0  0  0  0  0  0
   -1.3976    0.8088   -0.9032 H   0  0  0  0  0  0  0  0  0  0  0  0
   -0.1440   -1.5137    1.1552 H   0  0  0  0  0  0  0  0  0  0  0  0
    0.7080   -0.1116   -0.1828 H   0  0  0  0  0  0  0  0  0  0  0  0
   -0.1917   -1.0772   -0.6479 H   0  0  0  0  0  0  0  0  0  0  0  0
  1  3  1  0  0  0  0
  1  5  1  0  0  0  0
  2  6  1  0  0  0  0
  2  1  1  0  0  0  0
  2  8  1  0  0  0  0
  4  1  1  0  0  0  0
  6  9  1  0  0  0  0
  6 10  1  0  0  0  0
  7  2  1  0  0  0  0
  9 12  1  0  0  0  0
 11  6  1  0  0  0  0
 13  9  1  0  0  0  0
 14  9  1  0  0  0  0
M  END
$$$$
