butane_opt
 OpenBabel08242015413D

 14 13  0  0  0  0  0  0  0  0999 V2000
   -3.9488    0.2672    0.0421 C   0  0  0  0  0  0  0  0  0  0  0  0
   -2.6941   -0.6130    0.0168 C   0  0  0  0  0  0  0  0  0  0  0  0
   -4.8389   -0.3118   -0.1167 H   0  0  0  0  0  0  0  0  0  0  0  0
   -3.9143    0.7708   -0.7859 H   0  0  0  0  0  0  0  0  0  0  0  0
   -3.9534    1.0500    0.9404 H   0  0  0  0  0  0  0  0  0  0  0  0
   -1.4068    0.1541   -0.0123 C   0  0  0  0  0  0  0  0  0  0  0  0
   -2.6081   -1.2493   -0.7754 H   0  0  0  0  0  0  0  0  0  0  0  0
   -2.6663   -1.3087    0.9867 H   0  0  0  0  0  0  0  0  0  0  0  0
   -0.1789   -0.6751    0.0489 C   0  0  0  0  0  0  0  0  0  0  0  0
   -1.4155    0.8885    0.8487 H   0  0  0  0  0  0  0  0  0  0  0  0
   -1.3304    0.8536   -0.9358 H   0  0  0  0  0  0  0  0  0  0  0  0
   -0.1395   -1.3455    0.9436 H   0  0  0  0  0  0  0  0  0  0  0  0
    0.7385   -0.0984   -0.0131 H   0  0  0  0  0  0  0  0  0  0  0  0
   -0.1577   -1.3249   -0.7891 H   0  0  0  0  0  0  0  0  0  0  0  0
  1  5  1  0  0  0  0
  2  1  1  0  0  0  0
  2  8  1  0  0  0  0
  3  1  1  0  0  0  0
  4  1  1  0  0  0  0
  6  2  1  0  0  0  0
  6  9  1  0  0  0  0
  6 10  1  0  0  0  0
  7  2  1  0  0  0  0
  9 12  1  0  0  0  0
 11  6  1  0  0  0  0
 13  9  1  0  0  0  0
 14  9  1  0  0  0  0
M  END
$$$$
