14
butane_opt
C  -3.932952   0.245752   0.080309
C  -2.712508  -0.587056  -0.024114
H  -4.867170  -0.359199   0.116408
H  -4.007547   0.923257  -0.908786
H  -3.902538   0.865163   0.911072
C  -1.424127   0.188273  -0.015930
H  -2.825781  -1.399579  -0.992079
H  -2.681536  -1.126044   0.797576
C  -0.127755  -0.706876   0.074843
H  -1.510535   0.881382   0.787268
H  -1.306809   0.870535  -0.967929
H  -0.157361  -1.405460   1.039575
H   0.755616  -0.176250  -0.063436
H  -0.133135  -1.228218  -0.666195
