butane_opt
 OpenBabel08242015413D

 14 13  0  0  0  0  0  0  0  0999 V2000
   -3.9288    0.2623    0.0283 C   0  0  0  0  0  0  0  0  0  0  0  0
   -2.7053   -0.6031    0.0185 C   0  0  0  0  0  0  0  0  0  0  0  0
   -4.8528   -0.3792    0.0232 H   0  0  0  0  0  0  0  0  0  0  0  0
   -3.9113    0.8338   -0.8329 H   0  0  0  0  0  0  0  0  0  0  0  0
   -3.9810    0.9710    0.9127 H   0  0  0  0  0  0  0  0  0  0  0  0
   -1.4030    0.1844    0.0140 C   0  0  0  0  0  0  0  0  0  0  0  0
   -2.7216   -1.3331   -0.8643 H   0  0  0  0  0  0  0  0  0  0  0  0
   -2.7275   -1.2060    0.8933 H   0  0  0  0  0  0  0  0  0  0  0  0
   -0.1716   -0.6980    0.0406 C   0  0  0  0  0  0  0  0  0  0  0  0
   -1.4439    0.8407    0.8734 H   0  0  0  0  0  0  0  0  0  0  0  0
   -1.3750    0.8510   -0.8972 H   0  0  0  0  0  0  0  0  0  0  0  0
   -0.0549   -1.4210    0.9954 H   0  0  0  0  0  0  0  0  0  0  0  0
    0.7190   -0.1253   -0.1276 H   0  0  0  0  0  0  0  0  0  0  0  0
   -0.1704   -1.2476   -0.7368 H   0  0  0  0  0  0  0  0  0  0  0  0
  1  5  1  0  0  0  0
  2  1  1  0  0  0  0
  2  8  1  0  0  0  0
  3  1  1  0  0  0  0
  4  1  1  0  0  0  0
  6  2  1  0  0  0  0
  6  9  1  0  0  0  0
  6 10  1  0  0  0  0
  7  2  1  0  0  0  0
  9 12  1  0  0  0  0
 11  6  1  0  0  0  0
 13  9  1  0  0  0  0
 14  9  1  0  0  0  0
M  END
$$$$
