14
butane_opt
C  -3.964038   0.280706  -0.014301
C  -2.704672  -0.628736   0.042734
H  -4.918201  -0.323808   0.339883
H  -4.056858   1.089857  -1.046117
H  -3.865695   0.780642   0.734638
C  -1.403302   0.165352   0.049139
H  -2.662134  -1.287685  -0.817452
H  -2.706709  -1.311278   0.937390
C  -0.145520  -0.684011   0.016167
H  -1.236815   0.940346   0.959268
H  -1.378434   0.755956  -0.784657
H  -0.156561  -1.184114   0.851465
H   0.756220  -0.123932   0.031274
H  -0.181043  -1.410728  -0.906909
