14
butane_opt
C  -3.948833   0.267170   0.042099
C  -2.694128  -0.612987   0.016767
H  -4.838888  -0.311792  -0.116699
H  -3.914304   0.770786  -0.785918
H  -3.953373   1.049984   0.940403
C  -1.406824   0.154083  -0.012320
H  -2.608069  -1.249290  -0.775374
H  -2.666314  -1.308727   0.986727
C  -0.178901  -0.675082   0.048919
H  -1.415509   0.888545   0.848706
H  -1.330424   0.853559  -0.935839
H  -0.139548  -1.345450   0.943556
H   0.738464  -0.098378  -0.013134
H  -0.157700  -1.324910  -0.789079
