14
butane_opt
C  -3.969010   0.245488  -0.041809
C  -2.710155  -0.598704   0.067664
H  -4.942893  -0.376643   0.034071
H  -3.975018   0.880361  -0.950466
H  -3.983715   0.958646   0.820469
C  -1.397716   0.206762   0.087275
H  -2.647926  -1.275410  -0.725971
H  -2.704910  -1.284707   1.012474
C  -0.129251  -0.705897  -0.019556
H  -1.309777   0.951880   1.010359
H  -1.422199   0.795202  -0.767834
H  -0.032978  -1.448041   0.946344
H   0.722485  -0.145961  -0.252061
H  -0.229582  -1.309705  -0.805024
