butane_opt
 OpenBabel08242015413D

 14 13  0  0  0  0  0  0  0  0999 V2000
   -3.9541    0.2677    0.0486 C   0  0  0  0  0  0  0  0  0  0  0  0
   -2.6728   -0.6265    0.0087 C   0  0  0  0  0  0  0  0  0  0  0  0
   -4.8359   -0.2503   -0.1266 H   0  0  0  0  0  0  0  0  0  0  0  0
   -3.8980    0.6752   -0.7163 H   0  0  0  0  0  0  0  0  0  0  0  0
   -4.0331    1.2069    1.0473 H   0  0  0  0  0  0  0  0  0  0  0  0
   -1.4049    0.1480   -0.0434 C   0  0  0  0  0  0  0  0  0  0  0  0
   -2.7701   -1.1869   -0.7777 H   0  0  0  0  0  0  0  0  0  0  0  0
   -2.6989   -1.2840    0.8992 H   0  0  0  0  0  0  0  0  0  0  0  0
   -0.1713   -0.6764    0.0746 C   0  0  0  0  0  0  0  0  0  0  0  0
   -1.4055    0.8312    0.8031 H   0  0  0  0  0  0  0  0  0  0  0  0
   -1.3943    0.8411   -0.9402 H   0  0  0  0  0  0  0  0  0  0  0  0
   -0.1508   -1.3602    1.0313 H   0  0  0  0  0  0  0  0  0  0  0  0
    0.8104   -0.0378   -0.0285 H   0  0  0  0  0  0  0  0  0  0  0  0
   -0.2243   -1.2647   -0.7778 H   0  0  0  0  0  0  0  0  0  0  0  0
  1  5  1  0  0  0  0
  2  1  1  0  0  0  0
  2  8  1  0  0  0  0
  3  1  1  0  0  0  0
  4  1  1  0  0  0  0
  6  2  1  0  0  0  0
  6  9  1  0  0  0  0
  6 10  1  0  0  0  0
  7  2  1  0  0  0  0
  9 12  1  0  0  0  0
 11  6  1  0  0  0  0
 13  9  1  0  0  0  0
 14  9  1  0  0  0  0
M  END
$$$$
