14
butane_opt
C  -3.969367   0.288002   0.062924
C  -2.694103  -0.643712  -0.021922
H  -4.893091  -0.344219   0.229273
H  -4.103283   1.002423  -0.840558
H  -3.927797   0.865559   0.873133
C  -1.411208   0.160038  -0.025312
H  -2.778996  -1.420435  -0.949453
H  -2.545811  -1.107855   0.746762
C  -0.145839  -0.675399   0.086854
H  -1.364882   0.830061   0.779356
H  -1.279742   0.812513  -0.922279
H  -0.152110  -1.354728   1.038706
H   0.793877  -0.027882  -0.029685
H  -0.128913  -1.274695  -0.727578
