14
butane_opt
C  -3.976556   0.287289  -0.042656
C  -2.704744  -0.638913   0.086572
H  -4.827384  -0.257455  -0.095057
H  -4.026553   0.898867  -0.882852
H  -4.008301   0.919619   0.787522
C  -1.370794   0.163471   0.080951
H  -2.561521  -1.285252  -0.728125
H  -2.807552  -1.313683   1.071965
C  -0.154172  -0.673152  -0.022014
H  -1.293359   0.926521   1.007072
H  -1.410030   0.741202  -0.776183
H  -0.068780  -1.369047   0.906520
H   0.775463  -0.085625  -0.211812
H  -0.324605  -1.305483  -0.870512
