14
butane_opt
C  -3.951400   0.281649   0.071426
C  -2.699767  -0.636902  -0.028795
H  -4.847020  -0.306961   0.177965
H  -4.119061   1.040946  -0.848930
H  -3.864413   0.899812   0.899631
C  -1.389808   0.161806  -0.023924
H  -2.757724  -1.420394  -0.953151
H  -2.597890  -1.132652   0.768871
C  -0.168019  -0.681833   0.078949
H  -1.360611   0.766002   0.830393
H  -1.328739   0.868625  -0.979878
H  -0.268882  -1.376927   1.047384
H   0.803261  -0.024197   0.054743
H  -0.176720  -1.273865  -0.739113
