14
butane_opt
C  -3.933328   0.285689   0.000084
C  -2.677624  -0.633048   0.038356
H  -4.840190  -0.298205   0.270900
H  -4.114617   1.109318  -0.994675
H  -3.948115   0.795869   0.793627
C  -1.388029   0.164152   0.025079
H  -2.707750  -1.364838  -0.845586
H  -2.728070  -1.305458   0.929303
C  -0.201419  -0.668711   0.012908
H  -1.331173   0.921124   0.957085
H  -1.359166   0.661052  -0.764880
H  -0.178128  -1.309567   0.939849
H   0.762204  -0.083393   0.084167
H  -0.176995  -1.352572  -0.859932
