14
butane_opt
C  -3.973096   0.257834   0.012260
C  -2.702955  -0.606158   0.048554
H  -4.930817  -0.381936   0.190086
H  -3.931486   0.961756  -0.951363
H  -3.982757   0.794172   0.781133
C  -1.386814   0.206353   0.019743
H  -2.722158  -1.348780  -0.852132
H  -2.672016  -1.180336   0.863600
C  -0.135183  -0.704788   0.023117
H  -1.449959   0.900428   0.870064
H  -1.403040   0.778056  -0.833798
H  -0.124841  -1.274084   0.891549
H   0.711416  -0.175217   0.022353
H  -0.125992  -1.389502  -0.796011
