14
butane_opt
C  -3.930439   0.271855  -0.027299
C  -2.691551  -0.635815   0.055281
H  -4.799528  -0.256627   0.252817
H  -4.097049   1.091279  -1.060973
H  -3.985525   0.802829   0.751082
C  -1.402530   0.162969   0.085415
H  -2.600465  -1.311554  -0.774051
H  -2.719688  -1.265341   0.965179
C  -0.182011  -0.673248  -0.008377
H  -1.327357   0.861802   0.970047
H  -1.432394   0.819987  -0.863860
H  -0.143259  -1.214135   0.842342
H   0.799098  -0.042006  -0.014784
H  -0.240991  -1.450237  -0.904740
