14
butane_opt
C  -3.952746   0.292042  -0.040213
C  -2.701950  -0.649731   0.108629
H  -4.844035  -0.269163  -0.087289
H  -3.913520   0.852774  -0.950873
H  -4.055284   0.931891   0.776583
C  -1.381522   0.165003   0.070263
H  -2.644487  -1.267409  -0.719349
H  -2.747388  -1.273021   0.965090
C  -0.181315  -0.671404  -0.022923
H  -1.247414   0.933274   0.977778
H  -1.495516   0.739857  -0.748329
H  -0.040745  -1.325687   0.875745
H   0.712841  -0.097817  -0.174261
H  -0.157507  -1.323068  -0.854695
