14
butane_opt
C  -3.921545   0.254234   0.032791
C  -2.706065  -0.606988  -0.002953
H  -4.899408  -0.398894   0.241043
H  -4.074416   0.925791  -0.902715
H  -3.827973   0.839425   0.907222
C  -1.423800   0.219714  -0.006467
H  -2.729279  -1.336135  -0.890947
H  -2.642941  -1.265862   0.920825
C  -0.155728  -0.706328   0.059104
H  -1.415712   0.900684   0.824167
H  -1.408271   0.824259  -0.894916
H  -0.162113  -1.322847   0.977115
H   0.707089  -0.148080   0.063383
H  -0.068497  -1.423284  -0.808313
