14
butane_opt
C  -3.937950   0.245682  -0.004808
C  -2.694190  -0.615815   0.061243
H  -4.840367  -0.329302   0.182392
H  -4.046176   0.994625  -0.955582
H  -3.860389   0.843199   0.806895
C  -1.411063   0.198265   0.020464
H  -2.631839  -1.188025  -0.764745
H  -2.707640  -1.216688   0.956087
C  -0.170873  -0.697327   0.021025
H  -1.391222   0.901729   0.875325
H  -1.368622   0.806466  -0.867358
H  -0.237750  -1.192417   0.827662
H   0.712432  -0.130921   0.163654
H  -0.069565  -1.550934  -0.988687
