14
butane_opt
C  -3.944934   0.291594  -0.011981
C  -2.690496  -0.627417   0.049815
H  -4.851995  -0.310483   0.112937
H  -4.055180   0.982047  -0.943552
H  -3.860697   0.824534   0.709402
C  -1.389946   0.157899   0.050911
H  -2.598320  -1.261414  -0.717516
H  -2.682224  -1.347273   0.984908
C  -0.198375  -0.685957   0.007092
H  -1.305268   0.902709   0.947401
H  -1.399318   0.712726  -0.779826
H  -0.141925  -1.218350   0.871182
H   0.793448   0.014805  -0.015299
H  -0.251735  -1.392301  -0.899887
