14
butane_opt
C  -3.938082   0.244647  -0.004818
C  -2.707586  -0.574007   0.068342
H  -4.849631  -0.390576  -0.034130
H  -3.794334   0.941719  -1.023063
H  -3.959318   0.840127   0.780658
C  -1.418123   0.191127   0.066174
H  -2.700680  -1.319416  -0.830215
H  -2.748263  -1.167913   0.941789
C  -0.166574  -0.708170  -0.004481
H  -1.322430   0.912329   0.946171
H  -1.391484   0.771902  -0.756487
H   0.043949  -1.464942   0.973683
H   0.749838  -0.137497  -0.195659
H  -0.285122  -1.296996  -0.855758
