butane_opt
 OpenBabel08242015413D

 14 13  0  0  0  0  0  0  0  0999 V2000
   -3.9443    0.2685    0.0003 C   0  0  0  0  0  0  0  0  0  0  0  0
   -2.6931   -0.6195    0.0685 C   0  0  0  0  0  0  0  0  0  0  0  0
   -4.8360   -0.2985    0.0179 H   0  0  0  0  0  0  0  0  0  0  0  0
   -3.8874    0.9115   -0.9166 H   0  0  0  0  0  0  0  0  0  0  0  0
   -3.9996    0.9258    0.8226 H   0  0  0  0  0  0  0  0  0  0  0  0
   -1.4133    0.1709    0.0147 C   0  0  0  0  0  0  0  0  0  0  0  0
   -2.7205   -1.2662   -0.7500 H   0  0  0  0  0  0  0  0  0  0  0  0
   -2.6902   -1.2990    0.9803 H   0  0  0  0  0  0  0  0  0  0  0  0
   -0.1617   -0.6930    0.0182 C   0  0  0  0  0  0  0  0  0  0  0  0
   -1.3384    0.9146    0.9087 H   0  0  0  0  0  0  0  0  0  0  0  0
   -1.4340    0.7800   -0.8680 H   0  0  0  0  0  0  0  0  0  0  0  0
   -0.1965   -1.1832    0.8359 H   0  0  0  0  0  0  0  0  0  0  0  0
    0.7882   -0.0599    0.0806 H   0  0  0  0  0  0  0  0  0  0  0  0
   -0.1664   -1.4165   -0.9002 H   0  0  0  0  0  0  0  0  0  0  0  0
  1  3  1  0  0  0  0
  1  2  1  0  0  0  0
  1  5  1  0  0  0  0
  2  8  1  0  0  0  0
  4  1  1  0  0  0  0
  6  9  1  0  0  0  0
  6  2  1  0  0  0  0
  6 10  1  0  0  0  0
  7  2  1  0  0  0  0
  9 13  1  0  0  0  0
  9 12  1  0  0  0  0
 11  6  1  0  0  0  0
 14  9  1  0  0  0  0
M  END
$$$$
