butane_opt
 OpenBabel08242015413D

 14 13  0  0  0  0  0  0  0  0999 V2000
   -3.9449    0.2916   -0.0120 C   0  0  0  0  0  0  0  0  0  0  0  0
   -2.6905   -0.6274    0.0498 C   0  0  0  0  0  0  0  0  0  0  0  0
   -4.8520   -0.3105    0.1129 H   0  0  0  0  0  0  0  0  0  0  0  0
   -4.0552    0.9820   -0.9436 H   0  0  0  0  0  0  0  0  0  0  0  0
   -3.8607    0.8245    0.7094 H   0  0  0  0  0  0  0  0  0  0  0  0
   -1.3899    0.1579    0.0509 C   0  0  0  0  0  0  0  0  0  0  0  0
   -2.5983   -1.2614   -0.7175 H   0  0  0  0  0  0  0  0  0  0  0  0
   -2.6822   -1.3473    0.9849 H   0  0  0  0  0  0  0  0  0  0  0  0
   -0.1984   -0.6860    0.0071 C   0  0  0  0  0  0  0  0  0  0  0  0
   -1.3053    0.9027    0.9474 H   0  0  0  0  0  0  0  0  0  0  0  0
   -1.3993    0.7127   -0.7798 H   0  0  0  0  0  0  0  0  0  0  0  0
   -0.1419   -1.2184    0.8712 H   0  0  0  0  0  0  0  0  0  0  0  0
    0.7934    0.0148   -0.0153 H   0  0  0  0  0  0  0  0  0  0  0  0
   -0.2517   -1.3923   -0.8999 H   0  0  0  0  0  0  0  0  0  0  0  0
  1  2  1  0  0  0  0
  1  3  1  0  0  0  0
  1  5  1  0  0  0  0
  2  6  1  0  0  0  0
  2  8  1  0  0  0  0
  4  1  1  0  0  0  0
  6 10  1  0  0  0  0
  7  2  1  0  0  0  0
  9  6  1  0  0  0  0
  9 12  1  0  0  0  0
 11  6  1  0  0  0  0
 13  9  1  0  0  0  0
 14  9  1  0  0  0  0
M  END
$$$$
