butane_opt
 OpenBabel08242015413D

 14 13  0  0  0  0  0  0  0  0999 V2000
   -3.9657    0.2408    0.0323 C   0  0  0  0  0  0  0  0  0  0  0  0
   -2.7101   -0.5985    0.0047 C   0  0  0  0  0  0  0  0  0  0  0  0
   -4.8541   -0.3087    0.2386 H   0  0  0  0  0  0  0  0  0  0  0  0
   -4.0225    1.0053   -0.9569 H   0  0  0  0  0  0  0  0  0  0  0  0
   -3.9408    0.8639    0.8417 H   0  0  0  0  0  0  0  0  0  0  0  0
   -1.4011    0.1859    0.0224 C   0  0  0  0  0  0  0  0  0  0  0  0
   -2.7063   -1.3450   -0.8657 H   0  0  0  0  0  0  0  0  0  0  0  0
   -2.7328   -1.1664    0.8193 H   0  0  0  0  0  0  0  0  0  0  0  0
   -0.1309   -0.6981    0.0414 C   0  0  0  0  0  0  0  0  0  0  0  0
   -1.3628    0.8736    0.8940 H   0  0  0  0  0  0  0  0  0  0  0  0
   -1.4594    0.8924   -0.9059 H   0  0  0  0  0  0  0  0  0  0  0  0
   -0.1210   -1.4128    0.9731 H   0  0  0  0  0  0  0  0  0  0  0  0
    0.7883   -0.0912    0.0111 H   0  0  0  0  0  0  0  0  0  0  0  0
   -0.1182   -1.3406   -0.8057 H   0  0  0  0  0  0  0  0  0  0  0  0
  1  3  1  0  0  0  0
  1  5  1  0  0  0  0
  2  6  1  0  0  0  0
  2  1  1  0  0  0  0
  2  8  1  0  0  0  0
  4  1  1  0  0  0  0
  6  9  1  0  0  0  0
  6 10  1  0  0  0  0
  7  2  1  0  0  0  0
  9 12  1  0  0  0  0
 11  6  1  0  0  0  0
 13  9  1  0  0  0  0
 14  9  1  0  0  0  0
M  END
$$$$
