14
butane_opt
C  -3.937865   0.256517  -0.004942
C  -2.698268  -0.607133   0.057412
H  -4.843037  -0.333561   0.130044
H  -3.956025   0.983623  -0.967163
H  -3.911659   0.807814   0.791713
C  -1.417677   0.183891   0.037753
H  -2.657226  -1.321603  -0.820122
H  -2.711912  -1.205378   0.925384
C  -0.170720  -0.692238   0.009970
H  -1.337474   0.920863   0.942480
H  -1.421523   0.805352  -0.818207
H  -0.069325  -1.311797   0.902982
H   0.740007  -0.136719   0.001248
H  -0.163257  -1.371524  -0.855556
