butane_opt
 OpenBabel08242015413D

 14 13  0  0  0  0  0  0  0  0999 V2000
   -3.9222    0.2552   -0.0240 C   0  0  0  0  0  0  0  0  0  0  0  0
   -2.7083   -0.6054    0.0794 C   0  0  0  0  0  0  0  0  0  0  0  0
   -4.8523   -0.3578   -0.0740 H   0  0  0  0  0  0  0  0  0  0  0  0
   -3.7992    0.7959   -0.9455 H   0  0  0  0  0  0  0  0  0  0  0  0
   -3.9685    0.9376    0.8191 H   0  0  0  0  0  0  0  0  0  0  0  0
   -1.4121    0.2065    0.0563 C   0  0  0  0  0  0  0  0  0  0  0  0
   -2.7323   -1.1597   -0.6806 H   0  0  0  0  0  0  0  0  0  0  0  0
   -2.7686   -1.3451    1.0903 H   0  0  0  0  0  0  0  0  0  0  0  0
   -0.1711   -0.7101   -0.0104 C   0  0  0  0  0  0  0  0  0  0  0  0
   -1.3521    0.9824    0.9824 H   0  0  0  0  0  0  0  0  0  0  0  0
   -1.4513    0.8304   -0.8376 H   0  0  0  0  0  0  0  0  0  0  0  0
   -0.0949   -1.2915    0.8395 H   0  0  0  0  0  0  0  0  0  0  0  0
    0.7037   -0.1727   -0.0621 H   0  0  0  0  0  0  0  0  0  0  0  0
   -0.1437   -1.4548   -0.9128 H   0  0  0  0  0  0  0  0  0  0  0  0
  1  2  1  0  0  0  0
  1  5  1  0  0  0  0
  2  8  1  0  0  0  0
  3  1  1  0  0  0  0
  4  1  1  0  0  0  0
  6  2  1  0  0  0  0
  6 10  1  0  0  0  0
  7  2  1  0  0  0  0
  9  6  1  0  0  0  0
  9 12  1  0  0  0  0
 11  6  1  0  0  0  0
 13  9  1  0  0  0  0
 14  9  1  0  0  0  0
M  END
$$$$
