butane_opt
 OpenBabel08242015413D

 14 13  0  0  0  0  0  0  0  0999 V2000
   -3.9435    0.2842   -0.0463 C   0  0  0  0  0  0  0  0  0  0  0  0
   -2.6667   -0.6473    0.1072 C   0  0  0  0  0  0  0  0  0  0  0  0
   -4.8665   -0.2963   -0.0686 H   0  0  0  0  0  0  0  0  0  0  0  0
   -3.8685    0.9661   -0.9647 H   0  0  0  0  0  0  0  0  0  0  0  0
   -4.1024    0.8861    0.7680 H   0  0  0  0  0  0  0  0  0  0  0  0
   -1.3991    0.1718    0.0846 C   0  0  0  0  0  0  0  0  0  0  0  0
   -2.7073   -1.3027   -0.7721 H   0  0  0  0  0  0  0  0  0  0  0  0
   -2.6295   -1.2552    0.9960 H   0  0  0  0  0  0  0  0  0  0  0  0
   -0.1910   -0.6696   -0.0259 C   0  0  0  0  0  0  0  0  0  0  0  0
   -1.3268    0.8884    0.9877 H   0  0  0  0  0  0  0  0  0  0  0  0
   -1.4348    0.7212   -0.7315 H   0  0  0  0  0  0  0  0  0  0  0  0
   -0.1087   -1.3416    0.9048 H   0  0  0  0  0  0  0  0  0  0  0  0
    0.7528   -0.0666   -0.2159 H   0  0  0  0  0  0  0  0  0  0  0  0
   -0.3277   -1.3401   -0.9114 H   0  0  0  0  0  0  0  0  0  0  0  0
  1  2  1  0  0  0  0
  1  5  1  0  0  0  0
  2  8  1  0  0  0  0
  3  1  1  0  0  0  0
  4  1  1  0  0  0  0
  6  2  1  0  0  0  0
  6 10  1  0  0  0  0
  7  2  1  0  0  0  0
  9  6  1  0  0  0  0
  9 12  1  0  0  0  0
 11  6  1  0  0  0  0
 13  9  1  0  0  0  0
 14  9  1  0  0  0  0
M  END
$$$$
