14
butane_opt
C  -3.951186   0.273994   0.057054
C  -2.688569  -0.615988   0.002849
H  -4.841046  -0.281950  -0.012595
H  -4.014706   0.818591  -0.781041
H  -3.898998   1.056857   1.000111
C  -1.390131   0.152466  -0.033015
H  -2.672362  -1.424694  -0.960618
H  -2.629588  -1.151905   0.839557
C  -0.196718  -0.672862   0.068591
H  -1.379160   0.792327   0.814534
H  -1.294063   0.839048  -0.933960
H  -0.191019  -1.497705   1.100567
H   0.780578  -0.011975  -0.091849
H  -0.173056  -1.249202  -0.665322
