14
butane_opt
C  -3.951878   0.275856   0.039980
C  -2.681631  -0.649047  -0.003737
H  -4.858763  -0.290614   0.166951
H  -4.088013   1.038394  -0.947200
H  -3.909880   0.918423   0.921676
C  -1.395041   0.173245   0.008687
H  -2.704069  -1.365064  -0.871765
H  -2.563058  -1.262183   0.877425
C  -0.178197  -0.673591   0.054694
H  -1.413090   0.832053   0.814854
H  -1.294098   0.839899  -0.930338
H  -0.174398  -1.287933   0.963349
H   0.685200  -0.076649   0.050294
H  -0.211671  -1.336667  -0.817695
