14
butane_opt
C  -3.943519   0.284227  -0.046291
C  -2.666719  -0.647317   0.107190
H  -4.866527  -0.296327  -0.068580
H  -3.868529   0.966126  -0.964658
H  -4.102422   0.886097   0.768037
C  -1.399145   0.171815   0.084556
H  -2.707295  -1.302718  -0.772093
H  -2.629543  -1.255228   0.995958
C  -0.190988  -0.669553  -0.025883
H  -1.326804   0.888447   0.987746
H  -1.434778   0.721232  -0.731457
H  -0.108720  -1.341553   0.904840
H   0.752845  -0.066637  -0.215870
H  -0.327729  -1.340067  -0.911382
