butane_opt
 OpenBabel08242015413D

 14 13  0  0  0  0  0  0  0  0999 V2000
   -3.9346    0.2531   -0.0173 C   0  0  0  0  0  0  0  0  0  0  0  0
   -2.7279   -0.6064    0.0610 C   0  0  0  0  0  0  0  0  0  0  0  0
   -4.8498   -0.2988    0.1351 H   0  0  0  0  0  0  0  0  0  0  0  0
   -4.0431    1.0515   -1.0488 H   0  0  0  0  0  0  0  0  0  0  0  0
   -3.8877    0.7817    0.7083 H   0  0  0  0  0  0  0  0  0  0  0  0
   -1.3947    0.1882    0.0651 C   0  0  0  0  0  0  0  0  0  0  0  0
   -2.7375   -1.2117   -0.7451 H   0  0  0  0  0  0  0  0  0  0  0  0
   -2.8112   -1.3267    1.0283 H   0  0  0  0  0  0  0  0  0  0  0  0
   -0.1337   -0.7003   -0.0081 C   0  0  0  0  0  0  0  0  0  0  0  0
   -1.4894    0.9681    0.9849 H   0  0  0  0  0  0  0  0  0  0  0  0
   -1.3749    0.7667   -0.7412 H   0  0  0  0  0  0  0  0  0  0  0  0
   -0.0675   -1.2162    0.8189 H   0  0  0  0  0  0  0  0  0  0  0  0
    0.7085   -0.1909   -0.0098 H   0  0  0  0  0  0  0  0  0  0  0  0
   -0.1734   -1.4180   -0.9389 H   0  0  0  0  0  0  0  0  0  0  0  0
  1  2  1  0  0  0  0
  1  3  1  0  0  0  0
  1  5  1  0  0  0  0
  2  6  1  0  0  0  0
  2  8  1  0  0  0  0
  4  1  1  0  0  0  0
  6 10  1  0  0  0  0
  7  2  1  0  0  0  0
  9  6  1  0  0  0  0
  9 12  1  0  0  0  0
 11  6  1  0  0  0  0
 13  9  1  0  0  0  0
 14  9  1  0  0  0  0
M  END
$$$$
