butane_opt
 OpenBabel08242015413D

 14 13  0  0  0  0  0  0  0  0999 V2000
   -3.9267    0.2639    0.0524 C   0  0  0  0  0  0  0  0  0  0  0  0
   -2.7053   -0.5986   -0.0069 C   0  0  0  0  0  0  0  0  0  0  0  0
   -4.9585   -0.4147   -0.0248 H   0  0  0  0  0  0  0  0  0  0  0  0
   -3.9042    0.8520   -0.8114 H   0  0  0  0  0  0  0  0  0  0  0  0
   -3.9801    0.9936    0.9411 H   0  0  0  0  0  0  0  0  0  0  0  0
   -1.4132    0.1874   -0.0049 C   0  0  0  0  0  0  0  0  0  0  0  0
   -2.7568   -1.3265   -0.8986 H   0  0  0  0  0  0  0  0  0  0  0  0
   -2.7544   -1.2308    0.8489 H   0  0  0  0  0  0  0  0  0  0  0  0
   -0.1549   -0.7075    0.0531 C   0  0  0  0  0  0  0  0  0  0  0  0
   -1.3879    0.9287    0.8978 H   0  0  0  0  0  0  0  0  0  0  0  0
   -1.3711    0.7579   -0.8392 H   0  0  0  0  0  0  0  0  0  0  0  0
   -0.1143   -1.5213    1.1501 H   0  0  0  0  0  0  0  0  0  0  0  0
    0.7780   -0.1138   -0.2712 H   0  0  0  0  0  0  0  0  0  0  0  0
   -0.1639   -1.1446   -0.6579 H   0  0  0  0  0  0  0  0  0  0  0  0
  1  5  1  0  0  0  0
  2  6  1  0  0  0  0
  2  1  1  0  0  0  0
  2  8  1  0  0  0  0
  3  1  1  0  0  0  0
  4  1  1  0  0  0  0
  6  9  1  0  0  0  0
  6 10  1  0  0  0  0
  7  2  1  0  0  0  0
  9 12  1  0  0  0  0
 11  6  1  0  0  0  0
 13  9  1  0  0  0  0
 14  9  1  0  0  0  0
M  END
$$$$
