butane_opt
 OpenBabel08242015413D

 14 13  0  0  0  0  0  0  0  0999 V2000
   -3.9548    0.2759   -0.0536 C   0  0  0  0  0  0  0  0  0  0  0  0
   -2.6855   -0.6261    0.1206 C   0  0  0  0  0  0  0  0  0  0  0  0
   -4.8742   -0.2739   -0.2575 H   0  0  0  0  0  0  0  0  0  0  0  0
   -3.8139    0.7523   -0.8731 H   0  0  0  0  0  0  0  0  0  0  0  0
   -4.0301    1.0428    0.9112 H   0  0  0  0  0  0  0  0  0  0  0  0
   -1.4141    0.1560    0.0719 C   0  0  0  0  0  0  0  0  0  0  0  0
   -2.6217   -1.1560   -0.5985 H   0  0  0  0  0  0  0  0  0  0  0  0
   -2.8063   -1.3893    1.1198 H   0  0  0  0  0  0  0  0  0  0  0  0
   -0.1537   -0.6813   -0.0381 C   0  0  0  0  0  0  0  0  0  0  0  0
   -1.3951    0.9136    0.9575 H   0  0  0  0  0  0  0  0  0  0  0  0
   -1.4309    0.7975   -0.8299 H   0  0  0  0  0  0  0  0  0  0  0  0
   -0.1490   -1.2116    0.7968 H   0  0  0  0  0  0  0  0  0  0  0  0
    0.7847   -0.0668   -0.0827 H   0  0  0  0  0  0  0  0  0  0  0  0
   -0.2038   -1.3742   -0.9161 H   0  0  0  0  0  0  0  0  0  0  0  0
  1  2  1  0  0  0  0
  1  5  1  0  0  0  0
  2  8  1  0  0  0  0
  3  1  1  0  0  0  0
  4  1  1  0  0  0  0
  6  2  1  0  0  0  0
  6 10  1  0  0  0  0
  7  2  1  0  0  0  0
  9  6  1  0  0  0  0
  9 12  1  0  0  0  0
 11  6  1  0  0  0  0
 13  9  1  0  0  0  0
 14  9  1  0  0  0  0
M  END
$$$$
