butane_opt
 OpenBabel08242015413D

 14 13  0  0  0  0  0  0  0  0999 V2000
   -3.9355    0.2638    0.0246 C   0  0  0  0  0  0  0  0  0  0  0  0
   -2.6949   -0.6166    0.0088 C   0  0  0  0  0  0  0  0  0  0  0  0
   -4.8407   -0.3325    0.1391 H   0  0  0  0  0  0  0  0  0  0  0  0
   -4.0158    0.9193   -0.8921 H   0  0  0  0  0  0  0  0  0  0  0  0
   -3.9310    0.9367    0.9032 H   0  0  0  0  0  0  0  0  0  0  0  0
   -1.4081    0.1793    0.0105 C   0  0  0  0  0  0  0  0  0  0  0  0
   -2.7148   -1.2438   -0.8223 H   0  0  0  0  0  0  0  0  0  0  0  0
   -2.7124   -1.2606    0.9057 H   0  0  0  0  0  0  0  0  0  0  0  0
   -0.1658   -0.6927    0.0439 C   0  0  0  0  0  0  0  0  0  0  0  0
   -1.3554    0.8520    0.8559 H   0  0  0  0  0  0  0  0  0  0  0  0
   -1.3786    0.8036   -0.8518 H   0  0  0  0  0  0  0  0  0  0  0  0
   -0.1664   -1.3185    0.9752 H   0  0  0  0  0  0  0  0  0  0  0  0
    0.7408   -0.0988   -0.0143 H   0  0  0  0  0  0  0  0  0  0  0  0
   -0.1876   -1.3387   -0.8084 H   0  0  0  0  0  0  0  0  0  0  0  0
  1  3  1  0  0  0  0
  1  5  1  0  0  0  0
  2  6  1  0  0  0  0
  2  1  1  0  0  0  0
  2  8  1  0  0  0  0
  4  1  1  0  0  0  0
  6  9  1  0  0  0  0
  6 10  1  0  0  0  0
  7  2  1  0  0  0  0
  9 12  1  0  0  0  0
 11  6  1  0  0  0  0
 13  9  1  0  0  0  0
 14  9  1  0  0  0  0
M  END
$$$$
