14
butane_opt
C  -3.917195   0.287698   0.073812
C  -2.697902  -0.646270  -0.027193
H  -4.819718  -0.361654   0.180066
H  -4.074039   1.013909  -0.858002
H  -3.904229   0.936021   0.932632
C  -1.402542   0.168363  -0.036384
H  -2.770870  -1.428896  -0.919805
H  -2.642987  -1.168588   0.794152
C  -0.179242  -0.680590   0.083699
H  -1.397872   0.804549   0.807352
H  -1.418876   0.864887  -0.986769
H  -0.313295  -1.312098   1.031051
H   0.774751  -0.050022   0.069769
H  -0.098116  -1.309451  -0.746392
