14
butane_opt
C  -3.964066   0.292205   0.094561
C  -2.700596  -0.663581  -0.050522
H  -4.848305  -0.283851   0.203191
H  -4.123817   1.047798  -0.880197
H  -3.869677   0.875436   0.856628
C  -1.393164   0.176768  -0.030616
H  -2.774928  -1.415334  -0.972305
H  -2.638902  -1.174047   0.753947
C  -0.169444  -0.676111   0.090961
H  -1.320643   0.842821   0.817771
H  -1.310257   0.827682  -1.004041
H  -0.157427  -1.400245   1.073728
H   0.809391  -0.046094   0.039685
H  -0.084544  -1.279325  -0.703520
