butane_opt
 OpenBabel08242015413D

 14 13  0  0  0  0  0  0  0  0999 V2000
   -3.9172    0.2877    0.0738 C   0  0  0  0  0  0  0  0  0  0  0  0
   -2.6979   -0.6463   -0.0272 C   0  0  0  0  0  0  0  0  0  0  0  0
   -4.8197   -0.3617    0.1801 H   0  0  0  0  0  0  0  0  0  0  0  0
   -4.0740    1.0139   -0.8580 H   0  0  0  0  0  0  0  0  0  0  0  0
   -3.9042    0.9360    0.9326 H   0  0  0  0  0  0  0  0  0  0  0  0
   -1.4025    0.1684   -0.0364 C   0  0  0  0  0  0  0  0  0  0  0  0
   -2.7709   -1.4289   -0.9198 H   0  0  0  0  0  0  0  0  0  0  0  0
   -2.6430   -1.1686    0.7942 H   0  0  0  0  0  0  0  0  0  0  0  0
   -0.1792   -0.6806    0.0837 C   0  0  0  0  0  0  0  0  0  0  0  0
   -1.3979    0.8045    0.8074 H   0  0  0  0  0  0  0  0  0  0  0  0
   -1.4189    0.8649   -0.9868 H   0  0  0  0  0  0  0  0  0  0  0  0
   -0.3133   -1.3121    1.0311 H   0  0  0  0  0  0  0  0  0  0  0  0
    0.7748   -0.0500    0.0698 H   0  0  0  0  0  0  0  0  0  0  0  0
   -0.0981   -1.3095   -0.7464 H   0  0  0  0  0  0  0  0  0  0  0  0
  1  3  1  0  0  0  0
  1  5  1  0  0  0  0
  2  1  1  0  0  0  0
  2  8  1  0  0  0  0
  4  1  1  0  0  0  0
  6  2  1  0  0  0  0
  6  9  1  0  0  0  0
  6 10  1  0  0  0  0
  7  2  1  0  0  0  0
  9 12  1  0  0  0  0
 11  6  1  0  0  0  0
 13  9  1  0  0  0  0
 14  9  1  0  0  0  0
M  END
$$$$
