14
butane_opt
C  -3.944694   0.280728   0.039557
C  -2.679584  -0.624047  -0.014398
H  -4.820469  -0.278287   0.083108
H  -4.011989   0.855189  -0.860498
H  -3.903471   1.039739   0.937179
C  -1.407894   0.149153   0.003850
H  -2.721673  -1.338808  -0.867189
H  -2.658582  -1.283434   0.912460
C  -0.184875  -0.674742   0.067301
H  -1.343746   0.845031   0.838479
H  -1.346017   0.776002  -0.867816
H  -0.134049  -1.436442   1.044857
H   0.791650   0.029323  -0.182827
H  -0.282895  -1.234303  -0.737536
