butane_opt
 OpenBabel08242015413D

 14 13  0  0  0  0  0  0  0  0999 V2000
   -3.9548    0.2447    0.0413 C   0  0  0  0  0  0  0  0  0  0  0  0
   -2.7182   -0.5940    0.0171 C   0  0  0  0  0  0  0  0  0  0  0  0
   -4.9048   -0.3917   -0.0422 H   0  0  0  0  0  0  0  0  0  0  0  0
   -3.9426    0.7585   -0.7767 H   0  0  0  0  0  0  0  0  0  0  0  0
   -3.9297    1.0149    1.0117 H   0  0  0  0  0  0  0  0  0  0  0  0
   -1.4176    0.1982   -0.0464 C   0  0  0  0  0  0  0  0  0  0  0  0
   -2.7156   -1.1987   -0.7532 H   0  0  0  0  0  0  0  0  0  0  0  0
   -2.6463   -1.2376    0.9421 H   0  0  0  0  0  0  0  0  0  0  0  0
   -0.1446   -0.7077    0.0715 C   0  0  0  0  0  0  0  0  0  0  0  0
   -1.3785    0.8647    0.7795 H   0  0  0  0  0  0  0  0  0  0  0  0
   -1.3852    0.8605   -0.9445 H   0  0  0  0  0  0  0  0  0  0  0  0
   -0.0256   -1.2780    0.9530 H   0  0  0  0  0  0  0  0  0  0  0  0
    0.7489   -0.1181    0.1386 H   0  0  0  0  0  0  0  0  0  0  0  0
   -0.0231   -1.4579   -0.8663 H   0  0  0  0  0  0  0  0  0  0  0  0
  1  5  1  0  0  0  0
  2  1  1  0  0  0  0
  2  8  1  0  0  0  0
  3  1  1  0  0  0  0
  4  1  1  0  0  0  0
  6  2  1  0  0  0  0
  6  9  1  0  0  0  0
  6 10  1  0  0  0  0
  7  2  1  0  0  0  0
  9 13  1  0  0  0  0
  9 12  1  0  0  0  0
 11  6  1  0  0  0  0
 14  9  1  0  0  0  0
M  END
$$$$
