14
butane_opt
C  -3.935234   0.276380   0.050125
C  -2.708739  -0.632040  -0.018898
H  -4.744863  -0.262756   0.039411
H  -3.991946   0.832982  -0.786185
H  -3.949892   1.003255   0.981344
C  -1.402471   0.170466   0.003501
H  -2.689121  -1.400313  -0.900002
H  -2.687055  -1.192947   0.807287
C  -0.175900  -0.688246   0.062453
H  -1.417604   0.833145   0.865217
H  -1.326191   0.884368  -0.923360
H  -0.143833  -1.495884   1.108581
H   0.784341  -0.065187  -0.239803
H  -0.203752  -1.106211  -0.657972
