butane_opt
 OpenBabel08242015413D

 14 13  0  0  0  0  0  0  0  0999 V2000
   -3.9352    0.2764    0.0501 C   0  0  0  0  0  0  0  0  0  0  0  0
   -2.7087   -0.6320   -0.0189 C   0  0  0  0  0  0  0  0  0  0  0  0
   -4.7449   -0.2628    0.0394 H   0  0  0  0  0  0  0  0  0  0  0  0
   -3.9919    0.8330   -0.7862 H   0  0  0  0  0  0  0  0  0  0  0  0
   -3.9499    1.0033    0.9813 H   0  0  0  0  0  0  0  0  0  0  0  0
   -1.4025    0.1705    0.0035 C   0  0  0  0  0  0  0  0  0  0  0  0
   -2.6891   -1.4003   -0.9000 H   0  0  0  0  0  0  0  0  0  0  0  0
   -2.6871   -1.1929    0.8073 H   0  0  0  0  0  0  0  0  0  0  0  0
   -0.1759   -0.6882    0.0625 C   0  0  0  0  0  0  0  0  0  0  0  0
   -1.4176    0.8331    0.8652 H   0  0  0  0  0  0  0  0  0  0  0  0
   -1.3262    0.8844   -0.9234 H   0  0  0  0  0  0  0  0  0  0  0  0
   -0.1438   -1.4959    1.1086 H   0  0  0  0  0  0  0  0  0  0  0  0
    0.7843   -0.0652   -0.2398 H   0  0  0  0  0  0  0  0  0  0  0  0
   -0.2038   -1.1062   -0.6580 H   0  0  0  0  0  0  0  0  0  0  0  0
  1  5  1  0  0  0  0
  2  6  1  0  0  0  0
  2  1  1  0  0  0  0
  2  8  1  0  0  0  0
  3  1  1  0  0  0  0
  4  1  1  0  0  0  0
  6  9  1  0  0  0  0
  6 10  1  0  0  0  0
  7  2  1  0  0  0  0
  9 12  1  0  0  0  0
 11  6  1  0  0  0  0
 13  9  1  0  0  0  0
 14  9  1  0  0  0  0
M  END
$$$$
