14
butane_opt
C  -3.931482   0.245321   0.088614
C  -2.696188  -0.600852  -0.001033
H  -4.866464  -0.363250   0.025410
H  -4.010139   0.842324  -0.777645
H  -3.941754   0.895786   0.948764
C  -1.421800   0.216863  -0.081103
H  -2.784237  -1.362037  -0.919619
H  -2.731551  -1.199670   0.880920
C  -0.142683  -0.720920   0.087017
H  -1.467098   0.851828   0.735469
H  -1.381240   0.962660  -1.006962
H  -0.283825  -1.243772   0.910368
H   0.721152  -0.109941   0.309789
H   0.045909  -1.450400  -0.799577
