butane_opt
 OpenBabel08242015413D

 14 13  0  0  0  0  0  0  0  0999 V2000
   -3.9498    0.2769   -0.0334 C   0  0  0  0  0  0  0  0  0  0  0  0
   -2.6744   -0.6158    0.1016 C   0  0  0  0  0  0  0  0  0  0  0  0
   -4.9072   -0.3636   -0.1687 H   0  0  0  0  0  0  0  0  0  0  0  0
   -3.8964    0.8439   -0.9129 H   0  0  0  0  0  0  0  0  0  0  0  0
   -4.1238    0.9419    0.8012 H   0  0  0  0  0  0  0  0  0  0  0  0
   -1.3974    0.1568    0.0684 C   0  0  0  0  0  0  0  0  0  0  0  0
   -2.6331   -1.1928   -0.6890 H   0  0  0  0  0  0  0  0  0  0  0  0
   -2.7249   -1.3677    1.0781 H   0  0  0  0  0  0  0  0  0  0  0  0
   -0.1767   -0.6748   -0.0213 C   0  0  0  0  0  0  0  0  0  0  0  0
   -1.3407    0.8855    0.9406 H   0  0  0  0  0  0  0  0  0  0  0  0
   -1.4452    0.8188   -0.8031 H   0  0  0  0  0  0  0  0  0  0  0  0
   -0.0981   -1.2370    0.8643 H   0  0  0  0  0  0  0  0  0  0  0  0
    0.7434   -0.0499   -0.0866 H   0  0  0  0  0  0  0  0  0  0  0  0
   -0.2162   -1.4828   -0.9787 H   0  0  0  0  0  0  0  0  0  0  0  0
  1  2  1  0  0  0  0
  1  5  1  0  0  0  0
  2  8  1  0  0  0  0
  3  1  1  0  0  0  0
  4  1  1  0  0  0  0
  6  2  1  0  0  0  0
  6 10  1  0  0  0  0
  7  2  1  0  0  0  0
  9  6  1  0  0  0  0
  9 12  1  0  0  0  0
 11  6  1  0  0  0  0
 13  9  1  0  0  0  0
 14  9  1  0  0  0  0
M  END
$$$$
