14
butane_opt
C  -3.954240   0.255553   0.025381
C  -2.714337  -0.606860   0.049582
H  -4.867972  -0.365797  -0.095088
H  -3.899575   0.797098  -0.837426
H  -3.984297   0.995451   0.937531
C  -1.395818   0.205151   0.004323
H  -2.711325  -1.305076  -0.818650
H  -2.697374  -1.174798   0.891675
C  -0.155371  -0.710286   0.030993
H  -1.372733   0.845083   0.828482
H  -1.382162   0.855552  -0.939223
H  -0.125888  -1.399119   0.964016
H   0.749594  -0.110920  -0.001213
H  -0.092162  -1.336205  -0.800272
