butane_opt
 OpenBabel08242015413D

 14 13  0  0  0  0  0  0  0  0999 V2000
   -3.9315    0.2453    0.0886 C   0  0  0  0  0  0  0  0  0  0  0  0
   -2.6962   -0.6009   -0.0010 C   0  0  0  0  0  0  0  0  0  0  0  0
   -4.8665   -0.3633    0.0254 H   0  0  0  0  0  0  0  0  0  0  0  0
   -4.0101    0.8423   -0.7776 H   0  0  0  0  0  0  0  0  0  0  0  0
   -3.9418    0.8958    0.9488 H   0  0  0  0  0  0  0  0  0  0  0  0
   -1.4218    0.2169   -0.0811 C   0  0  0  0  0  0  0  0  0  0  0  0
   -2.7842   -1.3620   -0.9196 H   0  0  0  0  0  0  0  0  0  0  0  0
   -2.7316   -1.1997    0.8809 H   0  0  0  0  0  0  0  0  0  0  0  0
   -0.1427   -0.7209    0.0870 C   0  0  0  0  0  0  0  0  0  0  0  0
   -1.4671    0.8518    0.7355 H   0  0  0  0  0  0  0  0  0  0  0  0
   -1.3812    0.9627   -1.0070 H   0  0  0  0  0  0  0  0  0  0  0  0
   -0.2838   -1.2438    0.9104 H   0  0  0  0  0  0  0  0  0  0  0  0
    0.7212   -0.1099    0.3098 H   0  0  0  0  0  0  0  0  0  0  0  0
    0.0459   -1.4504   -0.7996 H   0  0  0  0  0  0  0  0  0  0  0  0
  1  5  1  0  0  0  0
  2  1  1  0  0  0  0
  2  8  1  0  0  0  0
  3  1  1  0  0  0  0
  4  1  1  0  0  0  0
  6  2  1  0  0  0  0
  6  9  1  0  0  0  0
  6 10  1  0  0  0  0
  7  2  1  0  0  0  0
  9 13  1  0  0  0  0
  9 12  1  0  0  0  0
 11  6  1  0  0  0  0
 14  9  1  0  0  0  0
M  END
$$$$
