14
butane_opt
C  -3.949793   0.276870  -0.033394
C  -2.674384  -0.615840   0.101577
H  -4.907197  -0.363638  -0.168704
H  -3.896396   0.843912  -0.912908
H  -4.123815   0.941853   0.801238
C  -1.397374   0.156754   0.068433
H  -2.633072  -1.192765  -0.688997
H  -2.724889  -1.367661   1.078102
C  -0.176686  -0.674783  -0.021344
H  -1.340708   0.885470   0.940563
H  -1.445168   0.818765  -0.803122
H  -0.098147  -1.236994   0.864261
H   0.743405  -0.049853  -0.086632
H  -0.216177  -1.482822  -0.978743
