14
butane_opt
C  -3.965464   0.261330  -0.047169
C  -2.704985  -0.613878   0.069223
H  -4.937975  -0.389986   0.089398
H  -3.970749   0.880397  -0.953378
H  -3.961690   0.887342   0.842052
C  -1.397127   0.203414   0.080178
H  -2.636368  -1.194443  -0.692665
H  -2.829185  -1.212715   1.011430
C  -0.134408  -0.713671  -0.016145
H  -1.314598   0.972442   1.008222
H  -1.395090   0.754983  -0.753523
H  -0.013095  -1.407647   0.931374
H   0.744943  -0.116990  -0.199816
H  -0.268232  -1.308545  -0.865263
