14
butane_opt
C  -3.944376   0.276663   0.039729
C  -2.674150  -0.616508   0.019964
H  -4.821697  -0.304659  -0.100377
H  -3.907116   0.715457  -0.752772
H  -4.070422   1.163671   1.082988
C  -1.395711   0.143029  -0.028997
H  -2.763744  -1.317876  -0.852948
H  -2.635561  -1.294495   0.950188
C  -0.182525  -0.672594   0.045742
H  -1.427390   0.824775   0.780478
H  -1.480848   0.788710  -0.939453
H  -0.256180  -1.397544   1.050025
H   0.810592   0.022342   0.037657
H  -0.121665  -1.221680  -0.697463
