14
butane_opt
C  -3.926571   0.268129  -0.050586
C  -2.692332  -0.619433   0.125564
H  -4.852255  -0.272769  -0.222000
H  -3.895555   0.816331  -0.902253
H  -4.032490   1.037606   0.881739
C  -1.410581   0.164344   0.068230
H  -2.628589  -1.261362  -0.666497
H  -2.702788  -1.368787   1.078165
C  -0.182889  -0.676777  -0.030923
H  -1.298670   0.812778   0.931631
H  -1.434144   0.859592  -0.851714
H  -0.128764  -1.199017   0.785976
H   0.703973  -0.114841   0.007612
H  -0.205465  -1.420312  -0.955298
