14
butane_opt
C  -3.941544   0.232728   0.061909
C  -2.719747  -0.587282  -0.032232
H  -4.860707  -0.392863   0.292787
H  -4.162541   0.930176  -0.875425
H  -3.837518   0.882723   0.891127
C  -1.417766   0.206048  -0.030019
H  -2.721115  -1.285106  -0.929089
H  -2.691956  -1.200657   0.820213
C  -0.126775  -0.713429   0.080628
H  -1.403081   0.928438   0.834492
H  -1.412080   0.904265  -0.923284
H  -0.116832  -1.414892   1.039967
H   0.758464  -0.117858   0.106352
H  -0.085330  -1.378977  -0.770557
