14
butane_opt
C  -3.966141   0.275813   0.053824
C  -2.697860  -0.640491   0.014148
H  -4.894960  -0.274898  -0.215259
H  -4.017301   0.657150  -0.709953
H  -4.036933   1.183399   1.067510
C  -1.388488   0.176014  -0.036286
H  -2.656681  -1.273583  -0.809106
H  -2.736738  -1.322095   0.943973
C  -0.148696  -0.665649   0.063348
H  -1.404901   0.822865   0.786938
H  -1.386764   0.848708  -0.995060
H  -0.149947  -1.438589   1.064615
H   0.744524  -0.105736  -0.027321
H  -0.078438  -1.322012  -0.776494
