butane_opt
 OpenBabel08242015413D

 14 13  0  0  0  0  0  0  0  0999 V2000
   -3.9447    0.2831   -0.0074 C   0  0  0  0  0  0  0  0  0  0  0  0
   -2.6955   -0.6468    0.0885 C   0  0  0  0  0  0  0  0  0  0  0  0
   -4.7978   -0.2432   -0.0863 H   0  0  0  0  0  0  0  0  0  0  0  0
   -3.7793    0.8221   -0.8766 H   0  0  0  0  0  0  0  0  0  0  0  0
   -4.0838    0.9938    0.8847 H   0  0  0  0  0  0  0  0  0  0  0  0
   -1.4031    0.1701    0.0178 C   0  0  0  0  0  0  0  0  0  0  0  0
   -2.7123   -1.3170   -0.7644 H   0  0  0  0  0  0  0  0  0  0  0  0
   -2.6392   -1.1954    0.9229 H   0  0  0  0  0  0  0  0  0  0  0  0
   -0.1851   -0.6762    0.0123 C   0  0  0  0  0  0  0  0  0  0  0  0
   -1.3573    0.8439    0.9167 H   0  0  0  0  0  0  0  0  0  0  0  0
   -1.3401    0.7884   -0.8686 H   0  0  0  0  0  0  0  0  0  0  0  0
   -0.1313   -1.2778    0.8874 H   0  0  0  0  0  0  0  0  0  0  0  0
    0.7502   -0.1133   -0.0555 H   0  0  0  0  0  0  0  0  0  0  0  0
   -0.2102   -1.3268   -0.8503 H   0  0  0  0  0  0  0  0  0  0  0  0
  1  2  1  0  0  0  0
  1  5  1  0  0  0  0
  2  8  1  0  0  0  0
  3  1  1  0  0  0  0
  4  1  1  0  0  0  0
  6  2  1  0  0  0  0
  6 10  1  0  0  0  0
  7  2  1  0  0  0  0
  9  6  1  0  0  0  0
  9 12  1  0  0  0  0
 11  6  1  0  0  0  0
 13  9  1  0  0  0  0
 14  9  1  0  0  0  0
M  END
$$$$
