14
butane_opt
C  -3.960049   0.235771   0.001773
C  -2.699056  -0.604564   0.066209
H  -4.857474  -0.336662   0.091935
H  -3.951508   0.970024  -1.001185
H  -3.936796   0.849083   0.840014
C  -1.414844   0.222195   0.023368
H  -2.782000  -1.234972  -0.771054
H  -2.778202  -1.293955   1.004787
C  -0.133732  -0.714901   0.021612
H  -1.491480   0.890066   0.850649
H  -1.346493   0.930743  -0.881413
H  -0.140897  -1.129935   0.755243
H   0.787956  -0.177919   0.159816
H  -0.027019  -1.605798  -1.007311
