butane_opt
 OpenBabel08242015413D

 14 13  0  0  0  0  0  0  0  0999 V2000
   -3.9539    0.2826   -0.0571 C   0  0  0  0  0  0  0  0  0  0  0  0
   -2.6811   -0.6318    0.1226 C   0  0  0  0  0  0  0  0  0  0  0  0
   -4.8538   -0.3055   -0.2552 H   0  0  0  0  0  0  0  0  0  0  0  0
   -3.8266    0.7623   -0.8857 H   0  0  0  0  0  0  0  0  0  0  0  0
   -4.0355    1.0479    0.9340 H   0  0  0  0  0  0  0  0  0  0  0  0
   -1.3935    0.1520    0.0770 C   0  0  0  0  0  0  0  0  0  0  0  0
   -2.6046   -1.1548   -0.6534 H   0  0  0  0  0  0  0  0  0  0  0  0
   -2.7126   -1.3940    1.1119 H   0  0  0  0  0  0  0  0  0  0  0  0
   -0.1894   -0.6769   -0.0369 C   0  0  0  0  0  0  0  0  0  0  0  0
   -1.3323    0.8841    0.9686 H   0  0  0  0  0  0  0  0  0  0  0  0
   -1.4569    0.8510   -0.8454 H   0  0  0  0  0  0  0  0  0  0  0  0
   -0.1488   -1.2316    0.8204 H   0  0  0  0  0  0  0  0  0  0  0  0
    0.7479   -0.0496   -0.0839 H   0  0  0  0  0  0  0  0  0  0  0  0
   -0.1977   -1.3963   -0.9399 H   0  0  0  0  0  0  0  0  0  0  0  0
  1  2  1  0  0  0  0
  1  5  1  0  0  0  0
  2  8  1  0  0  0  0
  3  1  1  0  0  0  0
  4  1  1  0  0  0  0
  6  2  1  0  0  0  0
  6 10  1  0  0  0  0
  7  2  1  0  0  0  0
  9  6  1  0  0  0  0
  9 12  1  0  0  0  0
 11  6  1  0  0  0  0
 13  9  1  0  0  0  0
 14  9  1  0  0  0  0
M  END
$$$$
