butane_opt
 OpenBabel08242015413D

 14 13  0  0  0  0  0  0  0  0999 V2000
   -3.9482    0.2537   -0.0176 C   0  0  0  0  0  0  0  0  0  0  0  0
   -2.7163   -0.6244    0.0685 C   0  0  0  0  0  0  0  0  0  0  0  0
   -4.8894   -0.3269   -0.0536 H   0  0  0  0  0  0  0  0  0  0  0  0
   -3.8749    0.9116   -0.9441 H   0  0  0  0  0  0  0  0  0  0  0  0
   -4.0599    0.9402    0.8094 H   0  0  0  0  0  0  0  0  0  0  0  0
   -1.4124    0.2067    0.0649 C   0  0  0  0  0  0  0  0  0  0  0  0
   -2.7196   -1.2851   -0.7086 H   0  0  0  0  0  0  0  0  0  0  0  0
   -2.6964   -1.2894    0.9724 H   0  0  0  0  0  0  0  0  0  0  0  0
   -0.1389   -0.7019   -0.0102 C   0  0  0  0  0  0  0  0  0  0  0  0
   -1.4064    1.0203    1.0109 H   0  0  0  0  0  0  0  0  0  0  0  0
   -1.4102    0.7841   -0.7932 H   0  0  0  0  0  0  0  0  0  0  0  0
   -0.0136   -1.4437    0.9113 H   0  0  0  0  0  0  0  0  0  0  0  0
    0.7593   -0.1111   -0.2106 H   0  0  0  0  0  0  0  0  0  0  0  0
   -0.1287   -1.2822   -0.8248 H   0  0  0  0  0  0  0  0  0  0  0  0
  1  2  1  0  0  0  0
  1  5  1  0  0  0  0
  2  8  1  0  0  0  0
  3  1  1  0  0  0  0
  4  1  1  0  0  0  0
  6  2  1  0  0  0  0
  6 10  1  0  0  0  0
  7  2  1  0  0  0  0
  9  6  1  0  0  0  0
  9 12  1  0  0  0  0
 11  6  1  0  0  0  0
 13  9  1  0  0  0  0
 14  9  1  0  0  0  0
M  END
$$$$
