butane_opt
 OpenBabel08242015413D

 14 13  0  0  0  0  0  0  0  0999 V2000
   -3.9600    0.2358    0.0018 C   0  0  0  0  0  0  0  0  0  0  0  0
   -2.6991   -0.6046    0.0662 C   0  0  0  0  0  0  0  0  0  0  0  0
   -4.8575   -0.3367    0.0919 H   0  0  0  0  0  0  0  0  0  0  0  0
   -3.9515    0.9700   -1.0012 H   0  0  0  0  0  0  0  0  0  0  0  0
   -3.9368    0.8491    0.8400 H   0  0  0  0  0  0  0  0  0  0  0  0
   -1.4148    0.2222    0.0234 C   0  0  0  0  0  0  0  0  0  0  0  0
   -2.7820   -1.2350   -0.7711 H   0  0  0  0  0  0  0  0  0  0  0  0
   -2.7782   -1.2940    1.0048 H   0  0  0  0  0  0  0  0  0  0  0  0
   -0.1337   -0.7149    0.0216 C   0  0  0  0  0  0  0  0  0  0  0  0
   -1.4915    0.8901    0.8506 H   0  0  0  0  0  0  0  0  0  0  0  0
   -1.3465    0.9307   -0.8814 H   0  0  0  0  0  0  0  0  0  0  0  0
   -0.1409   -1.1299    0.7552 H   0  0  0  0  0  0  0  0  0  0  0  0
    0.7880   -0.1779    0.1598 H   0  0  0  0  0  0  0  0  0  0  0  0
   -0.0270   -1.6058   -1.0073 H   0  0  0  0  0  0  0  0  0  0  0  0
  1  2  1  0  0  0  0
  1  3  1  0  0  0  0
  1  5  1  0  0  0  0
  2  8  1  0  0  0  0
  4  1  1  0  0  0  0
  6  2  1  0  0  0  0
  6 10  1  0  0  0  0
  7  2  1  0  0  0  0
  9  6  1  0  0  0  0
  9 13  1  0  0  0  0
  9 12  1  0  0  0  0
 11  6  1  0  0  0  0
 14  9  1  0  0  0  0
M  END
$$$$
