butane_opt
 OpenBabel08242015413D

 14 13  0  0  0  0  0  0  0  0999 V2000
   -3.9379    0.2511    0.0411 C   0  0  0  0  0  0  0  0  0  0  0  0
   -2.7095   -0.6147    0.0067 C   0  0  0  0  0  0  0  0  0  0  0  0
   -4.8362   -0.3286    0.2250 H   0  0  0  0  0  0  0  0  0  0  0  0
   -4.0830    0.8515   -0.8510 H   0  0  0  0  0  0  0  0  0  0  0  0
   -3.8458    0.8670    0.8951 H   0  0  0  0  0  0  0  0  0  0  0  0
   -1.4102    0.2166   -0.0287 C   0  0  0  0  0  0  0  0  0  0  0  0
   -2.7798   -1.2491   -0.8632 H   0  0  0  0  0  0  0  0  0  0  0  0
   -2.7117   -1.1594    0.8448 H   0  0  0  0  0  0  0  0  0  0  0  0
   -0.1389   -0.7213    0.0698 C   0  0  0  0  0  0  0  0  0  0  0  0
   -1.4194    0.8519    0.8082 H   0  0  0  0  0  0  0  0  0  0  0  0
   -1.3636    0.9197   -0.9655 H   0  0  0  0  0  0  0  0  0  0  0  0
   -0.2010   -1.2538    0.8986 H   0  0  0  0  0  0  0  0  0  0  0  0
    0.7259   -0.1455    0.2069 H   0  0  0  0  0  0  0  0  0  0  0  0
   -0.1320   -1.4243   -0.8286 H   0  0  0  0  0  0  0  0  0  0  0  0
  1  3  1  0  0  0  0
  1  5  1  0  0  0  0
  2  1  1  0  0  0  0
  2  8  1  0  0  0  0
  4  1  1  0  0  0  0
  6  2  1  0  0  0  0
  6  9  1  0  0  0  0
  6 10  1  0  0  0  0
  7  2  1  0  0  0  0
  9 13  1  0  0  0  0
  9 12  1  0  0  0  0
 11  6  1  0  0  0  0
 14  9  1  0  0  0  0
M  END
$$$$
