butane_opt
 OpenBabel08242015413D

 14 13  0  0  0  0  0  0  0  0999 V2000
   -3.9192    0.2590   -0.0206 C   0  0  0  0  0  0  0  0  0  0  0  0
   -2.6913   -0.6141    0.0659 C   0  0  0  0  0  0  0  0  0  0  0  0
   -4.8938   -0.4082    0.0844 H   0  0  0  0  0  0  0  0  0  0  0  0
   -3.9590    0.9736   -0.9904 H   0  0  0  0  0  0  0  0  0  0  0  0
   -3.9486    0.8045    0.7728 H   0  0  0  0  0  0  0  0  0  0  0  0
   -1.4262    0.1999    0.0411 C   0  0  0  0  0  0  0  0  0  0  0  0
   -2.7268   -1.1815   -0.7113 H   0  0  0  0  0  0  0  0  0  0  0  0
   -2.6842   -1.2668    1.0049 H   0  0  0  0  0  0  0  0  0  0  0  0
   -0.1738   -0.6921    0.0053 C   0  0  0  0  0  0  0  0  0  0  0  0
   -1.3413    0.9575    1.0102 H   0  0  0  0  0  0  0  0  0  0  0  0
   -1.4414    0.7111   -0.7534 H   0  0  0  0  0  0  0  0  0  0  0  0
   -0.0642   -1.2628    0.8688 H   0  0  0  0  0  0  0  0  0  0  0  0
    0.7063   -0.1773   -0.0462 H   0  0  0  0  0  0  0  0  0  0  0  0
   -0.1375   -1.4638   -0.9297 H   0  0  0  0  0  0  0  0  0  0  0  0
  1  2  1  0  0  0  0
  1  3  1  0  0  0  0
  1  5  1  0  0  0  0
  2  8  1  0  0  0  0
  4  1  1  0  0  0  0
  6  2  1  0  0  0  0
  6 10  1  0  0  0  0
  7  2  1  0  0  0  0
  9  6  1  0  0  0  0
  9 12  1  0  0  0  0
 11  6  1  0  0  0  0
 13  9  1  0  0  0  0
 14  9  1  0  0  0  0
M  END
$$$$
