butane_opt
 OpenBabel08242015413D

 14 13  0  0  0  0  0  0  0  0999 V2000
   -3.9661    0.2758    0.0538 C   0  0  0  0  0  0  0  0  0  0  0  0
   -2.6979   -0.6405    0.0141 C   0  0  0  0  0  0  0  0  0  0  0  0
   -4.8950   -0.2749   -0.2153 H   0  0  0  0  0  0  0  0  0  0  0  0
   -4.0173    0.6572   -0.7100 H   0  0  0  0  0  0  0  0  0  0  0  0
   -4.0369    1.1834    1.0675 H   0  0  0  0  0  0  0  0  0  0  0  0
   -1.3885    0.1760   -0.0363 C   0  0  0  0  0  0  0  0  0  0  0  0
   -2.6567   -1.2736   -0.8091 H   0  0  0  0  0  0  0  0  0  0  0  0
   -2.7367   -1.3221    0.9440 H   0  0  0  0  0  0  0  0  0  0  0  0
   -0.1487   -0.6656    0.0633 C   0  0  0  0  0  0  0  0  0  0  0  0
   -1.4049    0.8229    0.7869 H   0  0  0  0  0  0  0  0  0  0  0  0
   -1.3868    0.8487   -0.9951 H   0  0  0  0  0  0  0  0  0  0  0  0
   -0.1499   -1.4386    1.0646 H   0  0  0  0  0  0  0  0  0  0  0  0
    0.7445   -0.1057   -0.0273 H   0  0  0  0  0  0  0  0  0  0  0  0
   -0.0784   -1.3220   -0.7765 H   0  0  0  0  0  0  0  0  0  0  0  0
  1  5  1  0  0  0  0
  2  1  1  0  0  0  0
  2  8  1  0  0  0  0
  3  1  1  0  0  0  0
  4  1  1  0  0  0  0
  6  2  1  0  0  0  0
  6  9  1  0  0  0  0
  6 10  1  0  0  0  0
  7  2  1  0  0  0  0
  9 12  1  0  0  0  0
 11  6  1  0  0  0  0
 13  9  1  0  0  0  0
 14  9  1  0  0  0  0
M  END
$$$$
