14
butane_opt
C  -3.931355   0.231966  -0.022842
C  -2.699161  -0.566987   0.066977
H  -4.916882  -0.393064   0.227583
H  -3.854836   1.095336  -1.115244
H  -3.891641   0.730837   0.734146
C  -1.411167   0.195035   0.078278
H  -2.724546  -1.229054  -0.755848
H  -2.722864  -1.180711   0.947993
C  -0.172047  -0.718303  -0.017228
H  -1.406554   0.922892   0.926876
H  -1.361210   0.733149  -0.746299
H  -0.099884  -1.240455   0.851971
H   0.721548  -0.159826  -0.018824
H  -0.182976  -1.458911  -0.906410
