butane_opt
 OpenBabel08242015413D

 14 13  0  0  0  0  0  0  0  0999 V2000
   -3.9314    0.2320   -0.0228 C   0  0  0  0  0  0  0  0  0  0  0  0
   -2.6992   -0.5670    0.0670 C   0  0  0  0  0  0  0  0  0  0  0  0
   -4.9169   -0.3931    0.2276 H   0  0  0  0  0  0  0  0  0  0  0  0
   -3.8548    1.0953   -1.1152 H   0  0  0  0  0  0  0  0  0  0  0  0
   -3.8916    0.7308    0.7341 H   0  0  0  0  0  0  0  0  0  0  0  0
   -1.4112    0.1950    0.0783 C   0  0  0  0  0  0  0  0  0  0  0  0
   -2.7245   -1.2291   -0.7558 H   0  0  0  0  0  0  0  0  0  0  0  0
   -2.7229   -1.1807    0.9480 H   0  0  0  0  0  0  0  0  0  0  0  0
   -0.1720   -0.7183   -0.0172 C   0  0  0  0  0  0  0  0  0  0  0  0
   -1.4066    0.9229    0.9269 H   0  0  0  0  0  0  0  0  0  0  0  0
   -1.3612    0.7331   -0.7463 H   0  0  0  0  0  0  0  0  0  0  0  0
   -0.0999   -1.2405    0.8520 H   0  0  0  0  0  0  0  0  0  0  0  0
    0.7215   -0.1598   -0.0188 H   0  0  0  0  0  0  0  0  0  0  0  0
   -0.1830   -1.4589   -0.9064 H   0  0  0  0  0  0  0  0  0  0  0  0
  1  2  1  0  0  0  0
  1  3  1  0  0  0  0
  1  5  1  0  0  0  0
  2  6  1  0  0  0  0
  2  8  1  0  0  0  0
  4  1  1  0  0  0  0
  6 10  1  0  0  0  0
  7  2  1  0  0  0  0
  9  6  1  0  0  0  0
  9 12  1  0  0  0  0
 11  6  1  0  0  0  0
 13  9  1  0  0  0  0
 14  9  1  0  0  0  0
M  END
$$$$
