14
butane_opt
C  -3.933037   0.292962  -0.044064
C  -2.682411  -0.632619   0.091962
H  -4.901376  -0.350746  -0.024940
H  -3.891478   0.972211  -0.993827
H  -4.043734   0.938732   0.764275
C  -1.401822   0.150783   0.091481
H  -2.657469  -1.303403  -0.735942
H  -2.738680  -1.322127   1.060645
C  -0.179690  -0.669638  -0.040408
H  -1.350044   0.932764   1.047767
H  -1.389182   0.631690  -0.718431
H  -0.150664  -1.377524   0.924377
H   0.731800  -0.016490  -0.240615
H  -0.273267  -1.265981  -0.838700
