butane_opt
 OpenBabel08242015413D

 14 13  0  0  0  0  0  0  0  0999 V2000
   -3.9341    0.2764    0.0769 C   0  0  0  0  0  0  0  0  0  0  0  0
   -2.6733   -0.6355   -0.0290 C   0  0  0  0  0  0  0  0  0  0  0  0
   -4.8084   -0.3004    0.2220 H   0  0  0  0  0  0  0  0  0  0  0  0
   -4.0682    0.9256   -0.8297 H   0  0  0  0  0  0  0  0  0  0  0  0
   -3.8730    0.9082    0.9120 H   0  0  0  0  0  0  0  0  0  0  0  0
   -1.4151    0.1751   -0.0441 C   0  0  0  0  0  0  0  0  0  0  0  0
   -2.7252   -1.4411   -0.9833 H   0  0  0  0  0  0  0  0  0  0  0  0
   -2.7227   -1.1806    0.8028 H   0  0  0  0  0  0  0  0  0  0  0  0
   -0.1854   -0.6876    0.0923 C   0  0  0  0  0  0  0  0  0  0  0  0
   -1.4213    0.8979    0.7734 H   0  0  0  0  0  0  0  0  0  0  0  0
   -1.3659    0.8534   -0.9746 H   0  0  0  0  0  0  0  0  0  0  0  0
   -0.1733   -1.3612    0.9931 H   0  0  0  0  0  0  0  0  0  0  0  0
    0.7898   -0.0618    0.0696 H   0  0  0  0  0  0  0  0  0  0  0  0
   -0.1658   -1.2381   -0.6775 H   0  0  0  0  0  0  0  0  0  0  0  0
  1  3  1  0  0  0  0
  1  5  1  0  0  0  0
  2  1  1  0  0  0  0
  2  8  1  0  0  0  0
  4  1  1  0  0  0  0
  6  2  1  0  0  0  0
  6  9  1  0  0  0  0
  6 10  1  0  0  0  0
  7  2  1  0  0  0  0
  9 12  1  0  0  0  0
 11  6  1  0  0  0  0
 13  9  1  0  0  0  0
 14  9  1  0  0  0  0
M  END
$$$$
