butane_opt
 OpenBabel08242015413D

 14 13  0  0  0  0  0  0  0  0999 V2000
   -3.9542    0.2822    0.0891 C   0  0  0  0  0  0  0  0  0  0  0  0
   -2.6970   -0.6532   -0.0259 C   0  0  0  0  0  0  0  0  0  0  0  0
   -4.8399   -0.2249   -0.0079 H   0  0  0  0  0  0  0  0  0  0  0  0
   -4.0392    0.7995   -0.7381 H   0  0  0  0  0  0  0  0  0  0  0  0
   -3.9222    1.0030    1.0051 H   0  0  0  0  0  0  0  0  0  0  0  0
   -1.3948    0.1856   -0.0713 C   0  0  0  0  0  0  0  0  0  0  0  0
   -2.7607   -1.2983   -0.8603 H   0  0  0  0  0  0  0  0  0  0  0  0
   -2.6532   -1.3226    0.9039 H   0  0  0  0  0  0  0  0  0  0  0  0
   -0.1541   -0.6753    0.1011 C   0  0  0  0  0  0  0  0  0  0  0  0
   -1.5007    0.7582    0.6493 H   0  0  0  0  0  0  0  0  0  0  0  0
   -1.3699    0.8673   -1.0051 H   0  0  0  0  0  0  0  0  0  0  0  0
   -0.2294   -1.2001    0.9425 H   0  0  0  0  0  0  0  0  0  0  0  0
    0.7429   -0.1102    0.2357 H   0  0  0  0  0  0  0  0  0  0  0  0
   -0.0615   -1.4125   -0.8075 H   0  0  0  0  0  0  0  0  0  0  0  0
  1  5  1  0  0  0  0
  2  1  1  0  0  0  0
  2  8  1  0  0  0  0
  3  1  1  0  0  0  0
  4  1  1  0  0  0  0
  6  2  1  0  0  0  0
  6  9  1  0  0  0  0
  6 10  1  0  0  0  0
  7  2  1  0  0  0  0
  9 13  1  0  0  0  0
  9 12  1  0  0  0  0
 11  6  1  0  0  0  0
 14  9  1  0  0  0  0
M  END
$$$$
