14
butane_opt
C  -3.950090   0.279920   0.016122
C  -2.697352  -0.645964   0.054629
H  -4.761007  -0.163687  -0.162087
H  -3.966651   0.707207  -0.746610
H  -4.011629   1.129497   1.007358
C  -1.404332   0.162400  -0.016419
H  -2.696655  -1.279989  -0.816713
H  -2.750099  -1.319158   0.979471
C  -0.166946  -0.674041   0.044907
H  -1.295578   0.809698   0.831408
H  -1.372878   0.858498  -0.945843
H  -0.191882  -1.271507   0.956251
H   0.771365  -0.036098  -0.023940
H  -0.143610  -1.366944  -0.815023
