14
butane_opt
C  -3.954213   0.282176   0.089141
C  -2.697047  -0.653216  -0.025916
H  -4.839928  -0.224897  -0.007921
H  -4.039196   0.799521  -0.738070
H  -3.922170   1.002977   1.005136
C  -1.394805   0.185647  -0.071316
H  -2.760662  -1.298259  -0.860349
H  -2.653209  -1.322580   0.903941
C  -0.154066  -0.675316   0.101146
H  -1.500738   0.758169   0.649257
H  -1.369922   0.867343  -1.005120
H  -0.229435  -1.200147   0.942493
H   0.742887  -0.110233   0.235695
H  -0.061514  -1.412482  -0.807486
