butane_opt
 OpenBabel08242015413D

 14 13  0  0  0  0  0  0  0  0999 V2000
   -3.9636    0.2815   -0.0053 C   0  0  0  0  0  0  0  0  0  0  0  0
   -2.6987   -0.6504    0.0682 C   0  0  0  0  0  0  0  0  0  0  0  0
   -4.8824   -0.2645    0.1429 H   0  0  0  0  0  0  0  0  0  0  0  0
   -4.0560    0.9825   -0.9429 H   0  0  0  0  0  0  0  0  0  0  0  0
   -3.9637    0.9365    0.8356 H   0  0  0  0  0  0  0  0  0  0  0  0
   -1.3953    0.1645    0.0150 C   0  0  0  0  0  0  0  0  0  0  0  0
   -2.6887   -1.3543   -0.7742 H   0  0  0  0  0  0  0  0  0  0  0  0
   -2.6313   -1.3120    0.9911 H   0  0  0  0  0  0  0  0  0  0  0  0
   -0.1480   -0.6700    0.0312 C   0  0  0  0  0  0  0  0  0  0  0  0
   -1.3707    0.8158    0.8102 H   0  0  0  0  0  0  0  0  0  0  0  0
   -1.3695    0.8935   -0.9387 H   0  0  0  0  0  0  0  0  0  0  0  0
   -0.2280   -1.0287    0.7560 H   0  0  0  0  0  0  0  0  0  0  0  0
    0.7397   -0.1259    0.2269 H   0  0  0  0  0  0  0  0  0  0  0  0
   -0.1021   -1.5297   -1.0076 H   0  0  0  0  0  0  0  0  0  0  0  0
  1  2  1  0  0  0  0
  1  3  1  0  0  0  0
  1  5  1  0  0  0  0
  2  8  1  0  0  0  0
  4  1  1  0  0  0  0
  6  9  1  0  0  0  0
  6  2  1  0  0  0  0
  6 10  1  0  0  0  0
  7  2  1  0  0  0  0
  9 13  1  0  0  0  0
  9 12  1  0  0  0  0
 11  6  1  0  0  0  0
 14  9  1  0  0  0  0
M  END
$$$$
