14
butane_opt
C  -3.951136   0.266015   0.054092
C  -2.669845  -0.604359  -0.012239
H  -4.869948  -0.320294   0.011421
H  -3.969380   0.826571  -0.814821
H  -3.869778   0.979738   0.983719
C  -1.408038   0.158803  -0.017113
H  -2.725159  -1.374742  -0.906637
H  -2.693554  -1.178314   0.820360
C  -0.181355  -0.679507   0.066905
H  -1.348923   0.920453   0.876422
H  -1.438064   0.758492  -0.893797
H  -0.134214  -1.584037   1.156341
H   0.734390  -0.043305  -0.182714
H  -0.198312  -1.138338  -0.678195
