butane_opt
 OpenBabel08242015413D

 14 13  0  0  0  0  0  0  0  0999 V2000
   -3.9413    0.2404   -0.0251 C   0  0  0  0  0  0  0  0  0  0  0  0
   -2.7090   -0.6122    0.0644 C   0  0  0  0  0  0  0  0  0  0  0  0
   -4.8414   -0.2971    0.2004 H   0  0  0  0  0  0  0  0  0  0  0  0
   -4.0505    1.0427   -1.0513 H   0  0  0  0  0  0  0  0  0  0  0  0
   -3.9265    0.7899    0.7500 H   0  0  0  0  0  0  0  0  0  0  0  0
   -1.4090    0.2164    0.0585 C   0  0  0  0  0  0  0  0  0  0  0  0
   -2.7386   -1.2630   -0.7433 H   0  0  0  0  0  0  0  0  0  0  0  0
   -2.7322   -1.2659    1.0012 H   0  0  0  0  0  0  0  0  0  0  0  0
   -0.1542   -0.7144    0.0063 C   0  0  0  0  0  0  0  0  0  0  0  0
   -1.4370    1.0143    0.9717 H   0  0  0  0  0  0  0  0  0  0  0  0
   -1.3668    0.7903   -0.7825 H   0  0  0  0  0  0  0  0  0  0  0  0
   -0.0653   -1.2607    0.8229 H   0  0  0  0  0  0  0  0  0  0  0  0
    0.7960   -0.1009   -0.0517 H   0  0  0  0  0  0  0  0  0  0  0  0
   -0.0973   -1.4836   -0.9687 H   0  0  0  0  0  0  0  0  0  0  0  0
  1  2  1  0  0  0  0
  1  3  1  0  0  0  0
  1  5  1  0  0  0  0
  2  8  1  0  0  0  0
  4  1  1  0  0  0  0
  6  2  1  0  0  0  0
  6 10  1  0  0  0  0
  7  2  1  0  0  0  0
  9  6  1  0  0  0  0
  9 12  1  0  0  0  0
 11  6  1  0  0  0  0
 13  9  1  0  0  0  0
 14  9  1  0  0  0  0
M  END
$$$$
