butane_opt
 OpenBabel08242015413D

 14 13  0  0  0  0  0  0  0  0999 V2000
   -3.9511    0.2660    0.0541 C   0  0  0  0  0  0  0  0  0  0  0  0
   -2.6698   -0.6044   -0.0122 C   0  0  0  0  0  0  0  0  0  0  0  0
   -4.8699   -0.3203    0.0114 H   0  0  0  0  0  0  0  0  0  0  0  0
   -3.9694    0.8266   -0.8148 H   0  0  0  0  0  0  0  0  0  0  0  0
   -3.8698    0.9797    0.9837 H   0  0  0  0  0  0  0  0  0  0  0  0
   -1.4080    0.1588   -0.0171 C   0  0  0  0  0  0  0  0  0  0  0  0
   -2.7252   -1.3747   -0.9066 H   0  0  0  0  0  0  0  0  0  0  0  0
   -2.6936   -1.1783    0.8204 H   0  0  0  0  0  0  0  0  0  0  0  0
   -0.1814   -0.6795    0.0669 C   0  0  0  0  0  0  0  0  0  0  0  0
   -1.3489    0.9205    0.8764 H   0  0  0  0  0  0  0  0  0  0  0  0
   -1.4381    0.7585   -0.8938 H   0  0  0  0  0  0  0  0  0  0  0  0
   -0.1342   -1.5840    1.1563 H   0  0  0  0  0  0  0  0  0  0  0  0
    0.7344   -0.0433   -0.1827 H   0  0  0  0  0  0  0  0  0  0  0  0
   -0.1983   -1.1383   -0.6782 H   0  0  0  0  0  0  0  0  0  0  0  0
  1  5  1  0  0  0  0
  2  1  1  0  0  0  0
  2  8  1  0  0  0  0
  3  1  1  0  0  0  0
  4  1  1  0  0  0  0
  6  2  1  0  0  0  0
  6  9  1  0  0  0  0
  6 10  1  0  0  0  0
  7  2  1  0  0  0  0
  9 12  1  0  0  0  0
 11  6  1  0  0  0  0
 13  9  1  0  0  0  0
 14  9  1  0  0  0  0
M  END
$$$$
