14
butane_opt
C  -3.950405   0.244821   0.073252
C  -2.712743  -0.597892  -0.038254
H  -4.880860  -0.347947   0.278813
H  -4.106871   0.912527  -0.827300
H  -3.821496   0.810892   0.861429
C  -1.388612   0.214801  -0.037424
H  -2.788496  -1.306047  -0.932845
H  -2.700055  -1.138347   0.790446
C  -0.158713  -0.716884   0.066111
H  -1.438776   0.914778   0.872651
H  -1.347559   0.831431  -0.909597
H  -0.134735  -1.447705   1.084901
H   0.696906  -0.197477   0.136352
H   0.030100  -1.252237  -0.675325
