14
butane_opt
C  -3.962160   0.238034  -0.023956
C  -2.715111  -0.580180   0.067317
H  -4.872826  -0.367862   0.008749
H  -3.970050   0.939012  -0.976025
H  -3.979024   0.800292   0.792365
C  -1.403225   0.217800   0.080226
H  -2.706792  -1.349237  -0.819680
H  -2.712325  -1.250217   0.962970
C  -0.140988  -0.721656   0.002724
H  -1.370509   0.922707   0.938963
H  -1.427212   0.813970  -0.809364
H   0.152014  -1.352141   0.892825
H   0.755242  -0.167841  -0.225788
H  -0.226068  -1.299092  -0.846068
