14
butane_opt
C  -3.942885   0.282942   0.067247
C  -2.699576  -0.619347  -0.002203
H  -4.818544  -0.278037  -0.113650
H  -3.841722   0.698970  -0.743652
H  -4.011257   1.127457   1.007853
C  -1.400694   0.156992  -0.045330
H  -2.798055  -1.292326  -0.854438
H  -2.685568  -1.291047   0.892939
C  -0.161555  -0.683294   0.076282
H  -1.401235   0.772815   0.767509
H  -1.398067   0.804317  -0.908224
H  -0.237242  -1.372015   0.990121
H   0.796294  -0.043915  -0.038254
H  -0.184913  -1.227860  -0.683934
