butane_opt
 OpenBabel08242015413D

 14 13  0  0  0  0  0  0  0  0999 V2000
   -3.9553    0.2418    0.0642 C   0  0  0  0  0  0  0  0  0  0  0  0
   -2.7325   -0.5936   -0.0023 C   0  0  0  0  0  0  0  0  0  0  0  0
   -4.8591   -0.3282   -0.1486 H   0  0  0  0  0  0  0  0  0  0  0  0
   -3.8402    0.6879   -0.6775 H   0  0  0  0  0  0  0  0  0  0  0  0
   -4.0024    1.0696    1.0213 H   0  0  0  0  0  0  0  0  0  0  0  0
   -1.3956    0.2098   -0.0346 C   0  0  0  0  0  0  0  0  0  0  0  0
   -2.8266   -1.2948   -0.8798 H   0  0  0  0  0  0  0  0  0  0  0  0
   -2.6013   -1.1310    0.8179 H   0  0  0  0  0  0  0  0  0  0  0  0
   -0.1347   -0.7289    0.0752 C   0  0  0  0  0  0  0  0  0  0  0  0
   -1.4291    0.8276    0.7733 H   0  0  0  0  0  0  0  0  0  0  0  0
   -1.3819    0.9410   -0.9491 H   0  0  0  0  0  0  0  0  0  0  0  0
   -0.1584   -1.4881    1.0603 H   0  0  0  0  0  0  0  0  0  0  0  0
    0.7891   -0.1137   -0.1383 H   0  0  0  0  0  0  0  0  0  0  0  0
   -0.0891   -1.2041   -0.6514 H   0  0  0  0  0  0  0  0  0  0  0  0
  1  5  1  0  0  0  0
  2  1  1  0  0  0  0
  2  8  1  0  0  0  0
  3  1  1  0  0  0  0
  4  1  1  0  0  0  0
  6  2  1  0  0  0  0
  6  9  1  0  0  0  0
  6 10  1  0  0  0  0
  7  2  1  0  0  0  0
  9 12  1  0  0  0  0
 11  6  1  0  0  0  0
 13  9  1  0  0  0  0
 14  9  1  0  0  0  0
M  END
$$$$
