14
butane_opt
C  -3.975087   0.292301   0.048074
C  -2.699822  -0.655319  -0.014541
H  -4.818006  -0.254533  -0.056873
H  -4.051174   0.771426  -0.714854
H  -3.911823   1.098196   1.015094
C  -1.373967   0.176007  -0.015624
H  -2.698427  -1.456592  -0.927077
H  -2.695786  -1.262950   0.900337
C  -0.167294  -0.675930   0.072506
H  -1.340544   0.848288   0.802417
H  -1.398420   0.835174  -0.904334
H  -0.045095  -1.513169   1.124606
H   0.719342  -0.081553  -0.205134
H  -0.206007  -1.086514  -0.641763
