butane_opt
 OpenBabel08242015413D

 14 13  0  0  0  0  0  0  0  0999 V2000
   -3.9842    0.2717   -0.0249 C   0  0  0  0  0  0  0  0  0  0  0  0
   -2.6920   -0.6335    0.0663 C   0  0  0  0  0  0  0  0  0  0  0  0
   -4.8893   -0.2978    0.2564 H   0  0  0  0  0  0  0  0  0  0  0  0
   -3.9945    1.1445   -1.0889 H   0  0  0  0  0  0  0  0  0  0  0  0
   -3.9624    0.7516    0.6997 H   0  0  0  0  0  0  0  0  0  0  0  0
   -1.3907    0.1613    0.0641 C   0  0  0  0  0  0  0  0  0  0  0  0
   -2.7450   -1.2215   -0.7505 H   0  0  0  0  0  0  0  0  0  0  0  0
   -2.6921   -1.3096    1.0196 H   0  0  0  0  0  0  0  0  0  0  0  0
   -0.1444   -0.6736   -0.0126 C   0  0  0  0  0  0  0  0  0  0  0  0
   -1.3674    0.9575    1.0194 H   0  0  0  0  0  0  0  0  0  0  0  0
   -1.3732    0.7606   -0.7825 H   0  0  0  0  0  0  0  0  0  0  0  0
   -0.1130   -1.1969    0.7719 H   0  0  0  0  0  0  0  0  0  0  0  0
    0.7416   -0.0689    0.1297 H   0  0  0  0  0  0  0  0  0  0  0  0
   -0.1035   -1.5024   -0.9891 H   0  0  0  0  0  0  0  0  0  0  0  0
  1  2  1  0  0  0  0
  1  3  1  0  0  0  0
  1  5  1  0  0  0  0
  2  8  1  0  0  0  0
  4  1  1  0  0  0  0
  6  2  1  0  0  0  0
  6 10  1  0  0  0  0
  7  2  1  0  0  0  0
  9  6  1  0  0  0  0
  9 13  1  0  0  0  0
  9 12  1  0  0  0  0
 11  6  1  0  0  0  0
 14  9  1  0  0  0  0
M  END
$$$$
