14
butane_opt
C  -3.957826   0.283413  -0.006726
C  -2.713967  -0.650719   0.049372
H  -4.832689  -0.252793   0.143638
H  -4.052031   0.992652  -0.959088
H  -3.977416   0.853910   0.786504
C  -1.380382   0.175752   0.022844
H  -2.712552  -1.255522  -0.726036
H  -2.731865  -1.351631   1.038788
C  -0.140848  -0.677922   0.017919
H  -1.364356   0.960116   0.948869
H  -1.417840   0.795596  -0.842659
H  -0.120329  -1.162801   0.807534
H   0.735692  -0.117009   0.131351
H  -0.234012  -1.502503  -0.909920
