14
butane_opt
C  -3.984178   0.271696  -0.024889
C  -2.691970  -0.633510   0.066264
H  -4.889317  -0.297761   0.256445
H  -3.994544   1.144473  -1.088869
H  -3.962404   0.751591   0.699709
C  -1.390739   0.161266   0.064150
H  -2.745048  -1.221516  -0.750476
H  -2.692111  -1.309568   1.019570
C  -0.144394  -0.673644  -0.012596
H  -1.367417   0.957500   1.019430
H  -1.373210   0.760613  -0.782515
H  -0.112993  -1.196945   0.771887
H   0.741610  -0.068917   0.129738
H  -0.103470  -1.502415  -0.989108
