butane_opt
 OpenBabel08242015413D

 14 13  0  0  0  0  0  0  0  0999 V2000
   -3.9081    0.2561    0.0373 C   0  0  0  0  0  0  0  0  0  0  0  0
   -2.7198   -0.5962   -0.0027 C   0  0  0  0  0  0  0  0  0  0  0  0
   -4.8040   -0.3829    0.2297 H   0  0  0  0  0  0  0  0  0  0  0  0
   -4.0998    0.8955   -0.8310 H   0  0  0  0  0  0  0  0  0  0  0  0
   -3.8285    0.8031    0.8573 H   0  0  0  0  0  0  0  0  0  0  0  0
   -1.4148    0.1965   -0.0147 C   0  0  0  0  0  0  0  0  0  0  0  0
   -2.6874   -1.2379   -0.8386 H   0  0  0  0  0  0  0  0  0  0  0  0
   -2.7192   -1.2384    0.9355 H   0  0  0  0  0  0  0  0  0  0  0  0
   -0.1701   -0.7049    0.0476 C   0  0  0  0  0  0  0  0  0  0  0  0
   -1.4523    0.8731    0.8452 H   0  0  0  0  0  0  0  0  0  0  0  0
   -1.3661    0.8592   -0.9023 H   0  0  0  0  0  0  0  0  0  0  0  0
   -0.1890   -1.2860    0.9381 H   0  0  0  0  0  0  0  0  0  0  0  0
    0.7152   -0.1538    0.2187 H   0  0  0  0  0  0  0  0  0  0  0  0
   -0.0322   -1.4309   -0.8346 H   0  0  0  0  0  0  0  0  0  0  0  0
  1  3  1  0  0  0  0
  1  5  1  0  0  0  0
  2  1  1  0  0  0  0
  2  8  1  0  0  0  0
  4  1  1  0  0  0  0
  6  2  1  0  0  0  0
  6  9  1  0  0  0  0
  6 10  1  0  0  0  0
  7  2  1  0  0  0  0
  9 13  1  0  0  0  0
  9 12  1  0  0  0  0
 11  6  1  0  0  0  0
 14  9  1  0  0  0  0
M  END
$$$$
