14
butane_opt
C  -3.964984   0.247400  -0.040144
C  -2.709583  -0.608491   0.113643
H  -4.842817  -0.341670  -0.183354
H  -3.828810   0.842627  -0.930950
H  -4.068253   0.990894   0.875280
C  -1.410524   0.202893   0.072210
H  -2.720616  -1.208797  -0.721445
H  -2.741177  -1.275612   1.047761
C  -0.133732  -0.712805  -0.028271
H  -1.338721   0.873185   0.925253
H  -1.416620   0.912420  -0.874677
H  -0.014485  -1.268613   0.835003
H   0.827389  -0.113865  -0.007545
H  -0.247674  -1.436121  -0.930770
