butane_opt
 OpenBabel08242015413D

 14 13  0  0  0  0  0  0  0  0999 V2000
   -3.9357    0.2655   -0.0206 C   0  0  0  0  0  0  0  0  0  0  0  0
   -2.7297   -0.5947    0.0825 C   0  0  0  0  0  0  0  0  0  0  0  0
   -4.8607   -0.3517    0.1352 H   0  0  0  0  0  0  0  0  0  0  0  0
   -3.9527    0.9466   -0.9485 H   0  0  0  0  0  0  0  0  0  0  0  0
   -3.9952    0.8172    0.7507 H   0  0  0  0  0  0  0  0  0  0  0  0
   -1.4026    0.1747    0.0477 C   0  0  0  0  0  0  0  0  0  0  0  0
   -2.6903   -1.2527   -0.7151 H   0  0  0  0  0  0  0  0  0  0  0  0
   -2.7274   -1.3211    1.0187 H   0  0  0  0  0  0  0  0  0  0  0  0
   -0.1454   -0.7003   -0.0012 C   0  0  0  0  0  0  0  0  0  0  0  0
   -1.4138    0.8562    0.8760 H   0  0  0  0  0  0  0  0  0  0  0  0
   -1.3240    0.8713   -0.9195 H   0  0  0  0  0  0  0  0  0  0  0  0
   -0.1661   -1.0986    0.7422 H   0  0  0  0  0  0  0  0  0  0  0  0
    0.7486   -0.0737    0.2033 H   0  0  0  0  0  0  0  0  0  0  0  0
   -0.0814   -1.6161   -1.0368 H   0  0  0  0  0  0  0  0  0  0  0  0
  1  2  1  0  0  0  0
  1  3  1  0  0  0  0
  1  5  1  0  0  0  0
  2  8  1  0  0  0  0
  4  1  1  0  0  0  0
  6  2  1  0  0  0  0
  6 10  1  0  0  0  0
  7  2  1  0  0  0  0
  9  6  1  0  0  0  0
  9 13  1  0  0  0  0
  9 12  1  0  0  0  0
 11  6  1  0  0  0  0
 14  9  1  0  0  0  0
M  END
$$$$
