butane_opt
 OpenBabel08242015413D

 14 13  0  0  0  0  0  0  0  0999 V2000
   -3.9574    0.2385    0.0491 C   0  0  0  0  0  0  0  0  0  0  0  0
   -2.7253   -0.5875   -0.0253 C   0  0  0  0  0  0  0  0  0  0  0  0
   -4.8466   -0.3123    0.3960 H   0  0  0  0  0  0  0  0  0  0  0  0
   -4.1164    0.9186   -0.8525 H   0  0  0  0  0  0  0  0  0  0  0  0
   -3.7813    0.8159    0.8234 H   0  0  0  0  0  0  0  0  0  0  0  0
   -1.4232    0.2023   -0.0134 C   0  0  0  0  0  0  0  0  0  0  0  0
   -2.7472   -1.3357   -0.9423 H   0  0  0  0  0  0  0  0  0  0  0  0
   -2.7189   -1.1243    0.7934 H   0  0  0  0  0  0  0  0  0  0  0  0
   -0.1129   -0.7089    0.0791 C   0  0  0  0  0  0  0  0  0  0  0  0
   -1.4408    0.8001    0.7772 H   0  0  0  0  0  0  0  0  0  0  0  0
   -1.3532    0.8854   -0.9139 H   0  0  0  0  0  0  0  0  0  0  0  0
   -0.1098   -1.3250    0.9811 H   0  0  0  0  0  0  0  0  0  0  0  0
    0.7729   -0.1557    0.0764 H   0  0  0  0  0  0  0  0  0  0  0  0
   -0.0541   -1.3727   -0.7732 H   0  0  0  0  0  0  0  0  0  0  0  0
  1  3  1  0  0  0  0
  1  5  1  0  0  0  0
  2  6  1  0  0  0  0
  2  1  1  0  0  0  0
  2  8  1  0  0  0  0
  4  1  1  0  0  0  0
  6  9  1  0  0  0  0
  6 10  1  0  0  0  0
  7  2  1  0  0  0  0
  9 12  1  0  0  0  0
 11  6  1  0  0  0  0
 13  9  1  0  0  0  0
 14  9  1  0  0  0  0
M  END
$$$$
