14
butane_opt
C  -3.948051   0.242546  -0.034606
C  -2.728880  -0.599458   0.105814
H  -4.876042  -0.323435  -0.161386
H  -3.868249   0.752791  -0.856765
H  -4.058716   1.045051   0.882201
C  -1.398266   0.212187   0.048927
H  -2.637207  -1.253042  -0.721347
H  -2.799905  -1.273569   1.027659
C  -0.136427  -0.707283  -0.004929
H  -1.269454   0.843542   0.887074
H  -1.466150   0.871139  -0.834408
H   0.003387  -1.309779   0.822744
H   0.658659  -0.211048  -0.075498
H  -0.153802  -1.408368  -0.890289
