butane_opt
 OpenBabel08242015413D

 14 13  0  0  0  0  0  0  0  0999 V2000
   -3.9704    0.2814    0.0144 C   0  0  0  0  0  0  0  0  0  0  0  0
   -2.6992   -0.6399    0.0714 C   0  0  0  0  0  0  0  0  0  0  0  0
   -4.8327   -0.2839   -0.0299 H   0  0  0  0  0  0  0  0  0  0  0  0
   -3.8531    0.9380   -0.9264 H   0  0  0  0  0  0  0  0  0  0  0  0
   -4.0707    0.9684    0.8617 H   0  0  0  0  0  0  0  0  0  0  0  0
   -1.3903    0.1702    0.0065 C   0  0  0  0  0  0  0  0  0  0  0  0
   -2.7354   -1.3139   -0.7735 H   0  0  0  0  0  0  0  0  0  0  0  0
   -2.7676   -1.2577    0.9442 H   0  0  0  0  0  0  0  0  0  0  0  0
   -0.1468   -0.6839    0.0189 C   0  0  0  0  0  0  0  0  0  0  0  0
   -1.3575    0.8479    0.8149 H   0  0  0  0  0  0  0  0  0  0  0  0
   -1.3984    0.7922   -0.8773 H   0  0  0  0  0  0  0  0  0  0  0  0
   -0.1838   -1.1676    0.8467 H   0  0  0  0  0  0  0  0  0  0  0  0
    0.8092   -0.0711    0.1126 H   0  0  0  0  0  0  0  0  0  0  0  0
   -0.1632   -1.4466   -0.8679 H   0  0  0  0  0  0  0  0  0  0  0  0
  1  2  1  0  0  0  0
  1  5  1  0  0  0  0
  2  8  1  0  0  0  0
  3  1  1  0  0  0  0
  4  1  1  0  0  0  0
  6  9  1  0  0  0  0
  6  2  1  0  0  0  0
  6 10  1  0  0  0  0
  7  2  1  0  0  0  0
  9 13  1  0  0  0  0
  9 12  1  0  0  0  0
 11  6  1  0  0  0  0
 14  9  1  0  0  0  0
M  END
$$$$
