butane_opt
 OpenBabel08242015413D

 14 13  0  0  0  0  0  0  0  0999 V2000
   -3.9650    0.2474   -0.0401 C   0  0  0  0  0  0  0  0  0  0  0  0
   -2.7096   -0.6085    0.1136 C   0  0  0  0  0  0  0  0  0  0  0  0
   -4.8428   -0.3417   -0.1834 H   0  0  0  0  0  0  0  0  0  0  0  0
   -3.8288    0.8426   -0.9310 H   0  0  0  0  0  0  0  0  0  0  0  0
   -4.0683    0.9909    0.8753 H   0  0  0  0  0  0  0  0  0  0  0  0
   -1.4105    0.2029    0.0722 C   0  0  0  0  0  0  0  0  0  0  0  0
   -2.7206   -1.2088   -0.7214 H   0  0  0  0  0  0  0  0  0  0  0  0
   -2.7412   -1.2756    1.0478 H   0  0  0  0  0  0  0  0  0  0  0  0
   -0.1337   -0.7128   -0.0283 C   0  0  0  0  0  0  0  0  0  0  0  0
   -1.3387    0.8732    0.9253 H   0  0  0  0  0  0  0  0  0  0  0  0
   -1.4166    0.9124   -0.8747 H   0  0  0  0  0  0  0  0  0  0  0  0
   -0.0145   -1.2686    0.8350 H   0  0  0  0  0  0  0  0  0  0  0  0
    0.8274   -0.1139   -0.0075 H   0  0  0  0  0  0  0  0  0  0  0  0
   -0.2477   -1.4361   -0.9308 H   0  0  0  0  0  0  0  0  0  0  0  0
  1  2  1  0  0  0  0
  1  5  1  0  0  0  0
  2  8  1  0  0  0  0
  3  1  1  0  0  0  0
  4  1  1  0  0  0  0
  6  2  1  0  0  0  0
  6 10  1  0  0  0  0
  7  2  1  0  0  0  0
  9 13  1  0  0  0  0
  9  6  1  0  0  0  0
  9 12  1  0  0  0  0
 11  6  1  0  0  0  0
 14  9  1  0  0  0  0
M  END
$$$$
