14
butane_opt
C  -3.917262   0.255041   0.024709
C  -2.715795  -0.591159   0.028311
H  -4.934472  -0.406393   0.007035
H  -3.906652   0.806105  -0.831615
H  -3.943256   0.941547   0.885026
C  -1.425033   0.204435   0.000428
H  -2.753781  -1.277250  -0.840837
H  -2.743646  -1.197193   0.913909
C  -0.148399  -0.719381   0.039716
H  -1.386437   0.965204   0.864924
H  -1.382156   0.755195  -0.815487
H  -0.115765  -1.451201   1.070285
H   0.806004  -0.104064  -0.156340
H  -0.173559  -1.306412  -0.765084
