14
butane_opt
C  -3.925242   0.264155  -0.000904
C  -2.687866  -0.614687   0.078779
H  -4.771786  -0.281780   0.070377
H  -3.961678   1.090478  -0.992108
H  -4.017228   0.782633   0.723279
C  -1.394108   0.167530   0.035561
H  -2.750827  -1.342387  -0.794569
H  -2.679543  -1.273236   1.000729
C  -0.183421  -0.682063  -0.001171
H  -1.449778   0.846498   0.924016
H  -1.393313   0.816764  -0.858936
H  -0.280261  -1.134130   0.801409
H   0.705858  -0.071287   0.174073
H  -0.137431  -1.522842  -1.005916
