butane_opt
 OpenBabel08242015413D

 14 13  0  0  0  0  0  0  0  0999 V2000
   -3.9342    0.2519    0.0686 C   0  0  0  0  0  0  0  0  0  0  0  0
   -2.7122   -0.6078   -0.0310 C   0  0  0  0  0  0  0  0  0  0  0  0
   -4.7839   -0.3125    0.2775 H   0  0  0  0  0  0  0  0  0  0  0  0
   -4.0175    0.9257   -0.8442 H   0  0  0  0  0  0  0  0  0  0  0  0
   -3.8790    0.8538    0.8819 H   0  0  0  0  0  0  0  0  0  0  0  0
   -1.4205    0.1939   -0.0505 C   0  0  0  0  0  0  0  0  0  0  0  0
   -2.7687   -1.2884   -0.9141 H   0  0  0  0  0  0  0  0  0  0  0  0
   -2.6002   -1.2103    0.8412 H   0  0  0  0  0  0  0  0  0  0  0  0
   -0.1565   -0.6948    0.0928 C   0  0  0  0  0  0  0  0  0  0  0  0
   -1.4248    0.9165    0.8099 H   0  0  0  0  0  0  0  0  0  0  0  0
   -1.4236    0.7311   -0.9067 H   0  0  0  0  0  0  0  0  0  0  0  0
   -0.1650   -1.3229    0.9821 H   0  0  0  0  0  0  0  0  0  0  0  0
    0.7679   -0.1296    0.0986 H   0  0  0  0  0  0  0  0  0  0  0  0
   -0.0545   -1.3422   -0.7425 H   0  0  0  0  0  0  0  0  0  0  0  0
  1  3  1  0  0  0  0
  1  5  1  0  0  0  0
  2  1  1  0  0  0  0
  2  8  1  0  0  0  0
  4  1  1  0  0  0  0
  6  2  1  0  0  0  0
  6  9  1  0  0  0  0
  6 10  1  0  0  0  0
  7  2  1  0  0  0  0
  9 13  1  0  0  0  0
  9 12  1  0  0  0  0
 11  6  1  0  0  0  0
 14  9  1  0  0  0  0
M  END
$$$$
