butane_opt
 OpenBabel08242015413D

 14 13  0  0  0  0  0  0  0  0999 V2000
   -3.9315    0.2524   -0.0100 C   0  0  0  0  0  0  0  0  0  0  0  0
   -2.7025   -0.5954    0.0799 C   0  0  0  0  0  0  0  0  0  0  0  0
   -4.8484   -0.3330    0.0411 H   0  0  0  0  0  0  0  0  0  0  0  0
   -3.8994    0.8684   -0.9185 H   0  0  0  0  0  0  0  0  0  0  0  0
   -3.9646    0.8884    0.8483 H   0  0  0  0  0  0  0  0  0  0  0  0
   -1.4079    0.1937    0.0226 C   0  0  0  0  0  0  0  0  0  0  0  0
   -2.7317   -1.2732   -0.7399 H   0  0  0  0  0  0  0  0  0  0  0  0
   -2.7795   -1.1973    0.9661 H   0  0  0  0  0  0  0  0  0  0  0  0
   -0.1638   -0.7043    0.0104 C   0  0  0  0  0  0  0  0  0  0  0  0
   -1.3958    0.8446    0.8545 H   0  0  0  0  0  0  0  0  0  0  0  0
   -1.4378    0.8294   -0.8702 H   0  0  0  0  0  0  0  0  0  0  0  0
   -0.1714   -1.2341    0.8413 H   0  0  0  0  0  0  0  0  0  0  0  0
    0.7710   -0.1079    0.1079 H   0  0  0  0  0  0  0  0  0  0  0  0
   -0.1003   -1.5127   -0.9366 H   0  0  0  0  0  0  0  0  0  0  0  0
  1  3  1  0  0  0  0
  1  2  1  0  0  0  0
  1  5  1  0  0  0  0
  2  8  1  0  0  0  0
  4  1  1  0  0  0  0
  6  2  1  0  0  0  0
  6 10  1  0  0  0  0
  7  2  1  0  0  0  0
  9  6  1  0  0  0  0
  9 13  1  0  0  0  0
  9 12  1  0  0  0  0
 11  6  1  0  0  0  0
 14  9  1  0  0  0  0
M  END
$$$$
