14
butane_opt
C  -3.933611   0.284365  -0.029232
C  -2.685756  -0.623140   0.091415
H  -4.885924  -0.350388   0.062423
H  -3.971490   0.961115  -0.951963
H  -3.968959   0.900829   0.772178
C  -1.391445   0.162160   0.044417
H  -2.686081  -1.293549  -0.767285
H  -2.677518  -1.340799   1.044435
C  -0.192224  -0.679045  -0.006260
H  -1.366652   0.846945   0.897406
H  -1.365385   0.819672  -0.811627
H  -0.139847  -1.159965   0.803416
H   0.762070  -0.069026   0.137390
H  -0.281363  -1.522803  -0.970413
