14
butane_opt
C  -3.935328   0.257675  -0.021583
C  -2.719040  -0.610887   0.096119
H  -4.859957  -0.372678   0.122871
H  -3.885525   0.979082  -0.962866
H  -3.990655   0.784900   0.733654
C  -1.394366   0.216238   0.035611
H  -2.775849  -1.274524  -0.767234
H  -2.711692  -1.247474   1.021627
C  -0.150127  -0.705171  -0.009314
H  -1.388621   0.853029   0.887815
H  -1.467816   0.847392  -0.828436
H  -0.224771  -1.138737   0.745779
H   0.705941  -0.218118   0.251961
H  -0.027498  -1.592020  -1.007536
