14
butane_opt
C  -3.975467   0.265103  -0.022195
C  -2.698406  -0.635568   0.087341
H  -4.757672  -0.226918   0.035986
H  -4.009086   1.025799  -1.021631
H  -4.050450   0.850055   0.776533
C  -1.388299   0.179634   0.045245
H  -2.661708  -1.228331  -0.666695
H  -2.745927  -1.366192   1.003197
C  -0.145680  -0.683912  -0.014701
H  -1.400962   0.949356   0.980805
H  -1.392086   0.701383  -0.751810
H  -0.118341  -1.177058   0.736916
H   0.755343  -0.082520   0.100010
H  -0.155580  -1.399042  -0.924211
