butane_opt
 OpenBabel08242015413D

 14 13  0  0  0  0  0  0  0  0999 V2000
   -3.9520    0.2755   -0.0159 C   0  0  0  0  0  0  0  0  0  0  0  0
   -2.6924   -0.6448    0.0855 C   0  0  0  0  0  0  0  0  0  0  0  0
   -4.8137   -0.3087   -0.1307 H   0  0  0  0  0  0  0  0  0  0  0  0
   -3.8772    0.8131   -0.8902 H   0  0  0  0  0  0  0  0  0  0  0  0
   -4.1039    1.0752    0.9344 H   0  0  0  0  0  0  0  0  0  0  0  0
   -1.3874    0.1877    0.0496 C   0  0  0  0  0  0  0  0  0  0  0  0
   -2.6008   -1.2886   -0.7381 H   0  0  0  0  0  0  0  0  0  0  0  0
   -2.8094   -1.2557    0.9643 H   0  0  0  0  0  0  0  0  0  0  0  0
   -0.1723   -0.6898   -0.0000 C   0  0  0  0  0  0  0  0  0  0  0  0
   -1.3722    0.7787    0.8649 H   0  0  0  0  0  0  0  0  0  0  0  0
   -1.4726    0.8570   -0.8821 H   0  0  0  0  0  0  0  0  0  0  0  0
   -0.0896   -1.3087    0.8380 H   0  0  0  0  0  0  0  0  0  0  0  0
    0.7606   -0.0474   -0.0747 H   0  0  0  0  0  0  0  0  0  0  0  0
   -0.2023   -1.3159   -0.8466 H   0  0  0  0  0  0  0  0  0  0  0  0
  1  2  1  0  0  0  0
  1  5  1  0  0  0  0
  2  8  1  0  0  0  0
  3  1  1  0  0  0  0
  4  1  1  0  0  0  0
  6  2  1  0  0  0  0
  6 10  1  0  0  0  0
  7  2  1  0  0  0  0
  9  6  1  0  0  0  0
  9 12  1  0  0  0  0
 11  6  1  0  0  0  0
 13  9  1  0  0  0  0
 14  9  1  0  0  0  0
M  END
$$$$
