14
butane_opt
C  -3.954983   0.245581   0.043183
C  -2.691410  -0.592103  -0.021255
H  -4.869675  -0.372724   0.327480
H  -3.999655   0.960874  -0.906811
H  -3.802549   0.782711   0.876694
C  -1.421497   0.205329   0.000809
H  -2.682786  -1.272883  -0.877021
H  -2.688871  -1.198365   0.869553
C  -0.160006  -0.707958   0.053857
H  -1.441131   0.912312   0.818003
H  -1.322641   0.792130  -0.875450
H  -0.190240  -1.388848   1.014589
H   0.784228  -0.110165   0.068055
H  -0.072241  -1.385063  -0.800032
