14
butane_opt
C  -3.937078   0.250656   0.051160
C  -2.709036  -0.594348  -0.013525
H  -4.891048  -0.381467   0.213266
H  -4.046977   0.931116  -0.866884
H  -3.852956   0.885566   0.872180
C  -1.404122   0.188359  -0.008909
H  -2.744325  -1.305656  -0.896558
H  -2.661144  -1.182867   0.838830
C  -0.162300  -0.705133   0.065374
H  -1.401401   0.861962   0.813963
H  -1.365378   0.875778  -0.941873
H  -0.152724  -1.359835   0.997449
H   0.735606  -0.117534   0.059117
H  -0.083306  -1.364763  -0.780544
