butane_opt
 OpenBabel08242015413D

 14 13  0  0  0  0  0  0  0  0999 V2000
   -3.9278    0.2490    0.0799 C   0  0  0  0  0  0  0  0  0  0  0  0
   -2.7094   -0.5985   -0.0191 C   0  0  0  0  0  0  0  0  0  0  0  0
   -4.7999   -0.3147    0.0585 H   0  0  0  0  0  0  0  0  0  0  0  0
   -3.9889    0.7976   -0.7557 H   0  0  0  0  0  0  0  0  0  0  0  0
   -3.8417    0.9874    0.9883 H   0  0  0  0  0  0  0  0  0  0  0  0
   -1.4096    0.2098   -0.0701 C   0  0  0  0  0  0  0  0  0  0  0  0
   -2.7703   -1.2766   -0.8245 H   0  0  0  0  0  0  0  0  0  0  0  0
   -2.6538   -1.2839    0.9125 H   0  0  0  0  0  0  0  0  0  0  0  0
   -0.1608   -0.7207    0.0849 C   0  0  0  0  0  0  0  0  0  0  0  0
   -1.5486    0.7760    0.6832 H   0  0  0  0  0  0  0  0  0  0  0  0
   -1.3059    0.8755   -0.9827 H   0  0  0  0  0  0  0  0  0  0  0  0
   -0.3230   -1.1712    0.9535 H   0  0  0  0  0  0  0  0  0  0  0  0
    0.7491   -0.1057    0.2820 H   0  0  0  0  0  0  0  0  0  0  0  0
   -0.0402   -1.4327   -0.8031 H   0  0  0  0  0  0  0  0  0  0  0  0
  1  5  1  0  0  0  0
  2  1  1  0  0  0  0
  2  8  1  0  0  0  0
  3  1  1  0  0  0  0
  4  1  1  0  0  0  0
  6  2  1  0  0  0  0
  6  9  1  0  0  0  0
  6 10  1  0  0  0  0
  7  2  1  0  0  0  0
  9 13  1  0  0  0  0
  9 12  1  0  0  0  0
 11  6  1  0  0  0  0
 14  9  1  0  0  0  0
M  END
$$$$
