14
butane_opt
C  -3.951719   0.279133   0.062058
C  -2.700015  -0.645472  -0.017867
H  -4.814825  -0.250321   0.117557
H  -4.097522   0.935114  -0.826959
H  -3.900027   0.879929   0.912623
C  -1.418216   0.185598  -0.019622
H  -2.804126  -1.472700  -0.993069
H  -2.583340  -1.155575   0.805446
C  -0.142820  -0.676025   0.078921
H  -1.362678   0.844147   0.801812
H  -1.335480   0.815597  -0.938927
H  -0.157501  -1.456876   1.069747
H   0.771758  -0.087101  -0.069180
H  -0.191372  -1.228481  -0.681452
