14
butane_opt
C  -3.934225   0.251926   0.068587
C  -2.712165  -0.607841  -0.031028
H  -4.783903  -0.312513   0.277515
H  -4.017482   0.925683  -0.844214
H  -3.879029   0.853780   0.881859
C  -1.420455   0.193908  -0.050539
H  -2.768719  -1.288429  -0.914063
H  -2.600173  -1.210308   0.841206
C  -0.156512  -0.694768   0.092790
H  -1.424768   0.916466   0.809911
H  -1.423646   0.731148  -0.906743
H  -0.164995  -1.322923   0.982066
H   0.767883  -0.129650   0.098630
H  -0.054542  -1.342187  -0.742495
