butane_opt
 OpenBabel08242015413D

 14 13  0  0  0  0  0  0  0  0999 V2000
   -3.9353    0.2577   -0.0216 C   0  0  0  0  0  0  0  0  0  0  0  0
   -2.7190   -0.6109    0.0961 C   0  0  0  0  0  0  0  0  0  0  0  0
   -4.8600   -0.3727    0.1229 H   0  0  0  0  0  0  0  0  0  0  0  0
   -3.8855    0.9791   -0.9629 H   0  0  0  0  0  0  0  0  0  0  0  0
   -3.9907    0.7849    0.7337 H   0  0  0  0  0  0  0  0  0  0  0  0
   -1.3944    0.2162    0.0356 C   0  0  0  0  0  0  0  0  0  0  0  0
   -2.7758   -1.2745   -0.7672 H   0  0  0  0  0  0  0  0  0  0  0  0
   -2.7117   -1.2475    1.0216 H   0  0  0  0  0  0  0  0  0  0  0  0
   -0.1501   -0.7052   -0.0093 C   0  0  0  0  0  0  0  0  0  0  0  0
   -1.3886    0.8530    0.8878 H   0  0  0  0  0  0  0  0  0  0  0  0
   -1.4678    0.8474   -0.8284 H   0  0  0  0  0  0  0  0  0  0  0  0
   -0.2248   -1.1387    0.7458 H   0  0  0  0  0  0  0  0  0  0  0  0
    0.7059   -0.2181    0.2520 H   0  0  0  0  0  0  0  0  0  0  0  0
   -0.0275   -1.5920   -1.0075 H   0  0  0  0  0  0  0  0  0  0  0  0
  1  2  1  0  0  0  0
  1  3  1  0  0  0  0
  1  5  1  0  0  0  0
  2  8  1  0  0  0  0
  4  1  1  0  0  0  0
  6  2  1  0  0  0  0
  6 10  1  0  0  0  0
  7  2  1  0  0  0  0
  9  6  1  0  0  0  0
  9 13  1  0  0  0  0
  9 12  1  0  0  0  0
 11  6  1  0  0  0  0
 14  9  1  0  0  0  0
M  END
$$$$
