butane_opt
 OpenBabel08242015413D

 14 13  0  0  0  0  0  0  0  0999 V2000
   -3.9095    0.2429   -0.0146 C   0  0  0  0  0  0  0  0  0  0  0  0
   -2.7244   -0.5765    0.0619 C   0  0  0  0  0  0  0  0  0  0  0  0
   -4.8335   -0.3800    0.2870 H   0  0  0  0  0  0  0  0  0  0  0  0
   -3.9893    1.0654   -1.0413 H   0  0  0  0  0  0  0  0  0  0  0  0
   -3.8353    0.6940    0.7125 H   0  0  0  0  0  0  0  0  0  0  0  0
   -1.4196    0.1893    0.0556 C   0  0  0  0  0  0  0  0  0  0  0  0
   -2.7573   -1.2790   -0.8639 H   0  0  0  0  0  0  0  0  0  0  0  0
   -2.7274   -1.1896    0.9303 H   0  0  0  0  0  0  0  0  0  0  0  0
   -0.1630   -0.7165   -0.0039 C   0  0  0  0  0  0  0  0  0  0  0  0
   -1.3759    0.9523    0.9691 H   0  0  0  0  0  0  0  0  0  0  0  0
   -1.4764    0.8234   -0.8317 H   0  0  0  0  0  0  0  0  0  0  0  0
   -0.1115   -1.2922    0.8057 H   0  0  0  0  0  0  0  0  0  0  0  0
    0.7679   -0.1061    0.1433 H   0  0  0  0  0  0  0  0  0  0  0  0
   -0.0859   -1.4274   -0.8744 H   0  0  0  0  0  0  0  0  0  0  0  0
  1  2  1  0  0  0  0
  1  3  1  0  0  0  0
  1  5  1  0  0  0  0
  2  8  1  0  0  0  0
  4  1  1  0  0  0  0
  6  2  1  0  0  0  0
  6 10  1  0  0  0  0
  7  2  1  0  0  0  0
  9  6  1  0  0  0  0
  9 13  1  0  0  0  0
  9 12  1  0  0  0  0
 11  6  1  0  0  0  0
 14  9  1  0  0  0  0
M  END
$$$$
