14
butane_opt
C  -3.960117   0.262183   0.051484
C  -2.700863  -0.620967   0.001428
H  -4.836698  -0.298644   0.176112
H  -4.030228   0.939644  -0.893675
H  -3.952413   0.905327   0.896307
C  -1.398674   0.180022  -0.021462
H  -2.705450  -1.351241  -0.878630
H  -2.691025  -1.159367   0.854071
C  -0.149613  -0.687576   0.059362
H  -1.390907   0.838335   0.818616
H  -1.399993   0.826863  -0.924352
H  -0.201644  -1.326377   0.980453
H   0.782660  -0.067190   0.095488
H  -0.088573  -1.376515  -0.771660
