14
butane_opt
C  -3.961070   0.269289  -0.009192
C  -2.694822  -0.637871   0.056098
H  -4.830824  -0.268212   0.065677
H  -3.989564   1.018988  -0.991056
H  -4.009692   0.868624   0.817964
C  -1.403325   0.182229   0.058477
H  -2.665989  -1.318402  -0.773478
H  -2.754591  -1.272069   0.942206
C  -0.154106  -0.686194   0.003057
H  -1.353828   0.894961   0.957260
H  -1.383290   0.812257  -0.827874
H  -0.053963  -1.311242   0.882845
H   0.806332  -0.066513  -0.071948
H  -0.236627  -1.343723  -0.868473
