butane_opt
 OpenBabel08242015413D

 14 13  0  0  0  0  0  0  0  0999 V2000
   -3.9524    0.2476   -0.0069 C   0  0  0  0  0  0  0  0  0  0  0  0
   -2.7030   -0.5939    0.0613 C   0  0  0  0  0  0  0  0  0  0  0  0
   -4.8580   -0.3698    0.1281 H   0  0  0  0  0  0  0  0  0  0  0  0
   -3.9887    0.8969   -0.9189 H   0  0  0  0  0  0  0  0  0  0  0  0
   -3.9935    0.8764    0.8519 H   0  0  0  0  0  0  0  0  0  0  0  0
   -1.4007    0.1987    0.0058 C   0  0  0  0  0  0  0  0  0  0  0  0
   -2.7139   -1.1894   -0.7142 H   0  0  0  0  0  0  0  0  0  0  0  0
   -2.7466   -1.3030    1.0096 H   0  0  0  0  0  0  0  0  0  0  0  0
   -0.1353   -0.6998    0.0282 C   0  0  0  0  0  0  0  0  0  0  0  0
   -1.4468    0.8605    0.8425 H   0  0  0  0  0  0  0  0  0  0  0  0
   -1.4478    0.7951   -0.8207 H   0  0  0  0  0  0  0  0  0  0  0  0
   -0.1510   -1.1485    0.8178 H   0  0  0  0  0  0  0  0  0  0  0  0
    0.7558   -0.1474    0.1792 H   0  0  0  0  0  0  0  0  0  0  0  0
   -0.1242   -1.5822   -1.0143 H   0  0  0  0  0  0  0  0  0  0  0  0
  1  2  1  0  0  0  0
  1  3  1  0  0  0  0
  1  5  1  0  0  0  0
  2  8  1  0  0  0  0
  4  1  1  0  0  0  0
  6  9  1  0  0  0  0
  6  2  1  0  0  0  0
  6 10  1  0  0  0  0
  7  2  1  0  0  0  0
  9 13  1  0  0  0  0
  9 12  1  0  0  0  0
 11  6  1  0  0  0  0
 14  9  1  0  0  0  0
M  END
$$$$
