butane_opt
 OpenBabel08242015413D

 14 13  0  0  0  0  0  0  0  0999 V2000
   -3.9662    0.2745    0.0034 C   0  0  0  0  0  0  0  0  0  0  0  0
   -2.7004   -0.6246    0.0577 C   0  0  0  0  0  0  0  0  0  0  0  0
   -4.8625   -0.3265    0.0981 H   0  0  0  0  0  0  0  0  0  0  0  0
   -4.0159    0.9775   -0.9526 H   0  0  0  0  0  0  0  0  0  0  0  0
   -3.9777    0.8737    0.8296 H   0  0  0  0  0  0  0  0  0  0  0  0
   -1.3957    0.1674    0.0210 C   0  0  0  0  0  0  0  0  0  0  0  0
   -2.6386   -1.2674   -0.7687 H   0  0  0  0  0  0  0  0  0  0  0  0
   -2.7279   -1.2970    0.9590 H   0  0  0  0  0  0  0  0  0  0  0  0
   -0.1596   -0.6828    0.0140 C   0  0  0  0  0  0  0  0  0  0  0  0
   -1.3301    0.9020    0.9280 H   0  0  0  0  0  0  0  0  0  0  0  0
   -1.3773    0.7833   -0.8717 H   0  0  0  0  0  0  0  0  0  0  0  0
   -0.1759   -1.2295    0.8523 H   0  0  0  0  0  0  0  0  0  0  0  0
    0.7797   -0.0529    0.1146 H   0  0  0  0  0  0  0  0  0  0  0  0
   -0.0442   -1.4434   -0.9146 H   0  0  0  0  0  0  0  0  0  0  0  0
  1  2  1  0  0  0  0
  1  3  1  0  0  0  0
  1  5  1  0  0  0  0
  2  8  1  0  0  0  0
  4  1  1  0  0  0  0
  6  2  1  0  0  0  0
  6 10  1  0  0  0  0
  7  2  1  0  0  0  0
  9  6  1  0  0  0  0
  9 13  1  0  0  0  0
  9 12  1  0  0  0  0
 11  6  1  0  0  0  0
 14  9  1  0  0  0  0
M  END
$$$$
