14
butane_opt
C  -3.948035   0.280025   0.029595
C  -2.685773  -0.625422   0.013291
H  -4.839398  -0.308366   0.059573
H  -3.958852   0.831653  -0.837824
H  -3.970577   0.967942   0.926464
C  -1.400415   0.170913  -0.000893
H  -2.695773  -1.327625  -0.863587
H  -2.696060  -1.267387   0.902158
C  -0.176546  -0.683960   0.050068
H  -1.385656   0.888639   0.871172
H  -1.317841   0.785242  -0.860818
H  -0.128252  -1.400185   1.024707
H   0.749866  -0.071992  -0.119998
H  -0.253180  -1.261665  -0.751834
