14
butane_opt
C  -3.924328   0.256104   0.069699
C  -2.714557  -0.594599  -0.027900
H  -4.855084  -0.332481   0.227867
H  -3.935847   0.925243  -0.831907
H  -3.865631   0.834074   0.889547
C  -1.423144   0.187822  -0.042292
H  -2.791531  -1.255665  -0.894083
H  -2.691275  -1.248397   0.859573
C  -0.158178  -0.721317   0.075525
H  -1.429092   0.932251   0.877478
H  -1.331883   0.828543  -0.964299
H  -0.231119  -1.280251   0.993112
H   0.818474  -0.068092   0.144150
H  -0.073735  -1.343367  -0.767622
