butane_opt
 OpenBabel08242015413D

 14 13  0  0  0  0  0  0  0  0999 V2000
   -3.9552    0.2526    0.0681 C   0  0  0  0  0  0  0  0  0  0  0  0
   -2.7265   -0.6159    0.0170 C   0  0  0  0  0  0  0  0  0  0  0  0
   -4.8649   -0.3409   -0.2018 H   0  0  0  0  0  0  0  0  0  0  0  0
   -3.8091    0.7031   -0.7486 H   0  0  0  0  0  0  0  0  0  0  0  0
   -3.9929    1.0941    0.9840 H   0  0  0  0  0  0  0  0  0  0  0  0
   -1.4013    0.2172   -0.0455 C   0  0  0  0  0  0  0  0  0  0  0  0
   -2.7462   -1.2832   -0.8233 H   0  0  0  0  0  0  0  0  0  0  0  0
   -2.6632   -1.2487    0.8767 H   0  0  0  0  0  0  0  0  0  0  0  0
   -0.1474   -0.7092    0.0692 C   0  0  0  0  0  0  0  0  0  0  0  0
   -1.3923    0.8243    0.7836 H   0  0  0  0  0  0  0  0  0  0  0  0
   -1.3838    0.9328   -0.9703 H   0  0  0  0  0  0  0  0  0  0  0  0
   -0.0770   -1.3709    0.9929 H   0  0  0  0  0  0  0  0  0  0  0  0
    0.7121   -0.1940    0.0322 H   0  0  0  0  0  0  0  0  0  0  0  0
   -0.0478   -1.3356   -0.7708 H   0  0  0  0  0  0  0  0  0  0  0  0
  1  5  1  0  0  0  0
  2  1  1  0  0  0  0
  2  8  1  0  0  0  0
  3  1  1  0  0  0  0
  4  1  1  0  0  0  0
  6  2  1  0  0  0  0
  6  9  1  0  0  0  0
  6 10  1  0  0  0  0
  7  2  1  0  0  0  0
  9 12  1  0  0  0  0
 11  6  1  0  0  0  0
 13  9  1  0  0  0  0
 14  9  1  0  0  0  0
M  END
$$$$
