14
butane_opt
C  -3.955160   0.252557   0.068090
C  -2.726470  -0.615898   0.017022
H  -4.864927  -0.340939  -0.201761
H  -3.809073   0.703126  -0.748593
H  -3.992927   1.094117   0.983995
C  -1.401286   0.217229  -0.045506
H  -2.746204  -1.283233  -0.823286
H  -2.663230  -1.248707   0.876723
C  -0.147367  -0.709230   0.069196
H  -1.392297   0.824324   0.783562
H  -1.383819   0.932761  -0.970277
H  -0.077014  -1.370851   0.992891
H   0.712070  -0.193992   0.032154
H  -0.047837  -1.335613  -0.770751
