14
butane_opt
C  -3.957440   0.272293   0.057772
C  -2.706929  -0.641480  -0.027189
H  -4.820696  -0.239846   0.006662
H  -4.096743   0.790506  -0.776032
H  -3.990863   1.103926   1.000040
C  -1.402267   0.167368  -0.007473
H  -2.641145  -1.358539  -0.911292
H  -2.735015  -1.250295   0.864661
C  -0.153272  -0.674521   0.061529
H  -1.387126   0.862033   0.846882
H  -1.361056   0.856920  -0.904165
H  -0.018543  -1.571514   1.162177
H   0.825198  -0.037649  -0.171747
H  -0.173976  -1.098402  -0.645414
