14
butane_opt
C  -3.976402   0.292316  -0.039616
C  -2.703073  -0.657671   0.119818
H  -4.837801  -0.229258  -0.149624
H  -3.894249   0.802270  -0.870791
H  -4.035127   1.061994   0.860985
C  -1.386604   0.184777   0.046996
H  -2.655682  -1.298227  -0.706332
H  -2.754376  -1.343262   1.049680
C  -0.159301  -0.673233  -0.011672
H  -1.295789   0.752735   0.877877
H  -1.317679   0.781164  -0.842814
H  -0.131130  -1.196711   0.776691
H   0.726242  -0.088138  -0.005543
H  -0.142345  -1.455428  -0.942621
