butane_opt
 OpenBabel08242015413D

 14 13  0  0  0  0  0  0  0  0999 V2000
   -3.9584    0.2924    0.0557 C   0  0  0  0  0  0  0  0  0  0  0  0
   -2.7041   -0.6430    0.0162 C   0  0  0  0  0  0  0  0  0  0  0  0
   -4.8393   -0.3084   -0.1651 H   0  0  0  0  0  0  0  0  0  0  0  0
   -3.9681    0.6329   -0.6684 H   0  0  0  0  0  0  0  0  0  0  0  0
   -4.1496    1.1737    1.0576 H   0  0  0  0  0  0  0  0  0  0  0  0
   -1.3850    0.1674   -0.0660 C   0  0  0  0  0  0  0  0  0  0  0  0
   -2.8477   -1.2642   -0.8118 H   0  0  0  0  0  0  0  0  0  0  0  0
   -2.6601   -1.2447    0.9051 H   0  0  0  0  0  0  0  0  0  0  0  0
   -0.1532   -0.6757    0.0718 C   0  0  0  0  0  0  0  0  0  0  0  0
   -1.3540    0.8153    0.7672 H   0  0  0  0  0  0  0  0  0  0  0  0
   -1.3428    0.7962   -0.9142 H   0  0  0  0  0  0  0  0  0  0  0  0
   -0.1889   -1.4133    1.0874 H   0  0  0  0  0  0  0  0  0  0  0  0
    0.8116   -0.0647    0.0306 H   0  0  0  0  0  0  0  0  0  0  0  0
   -0.0835   -1.2909   -0.7533 H   0  0  0  0  0  0  0  0  0  0  0  0
  1  5  1  0  0  0  0
  2  1  1  0  0  0  0
  2  8  1  0  0  0  0
  3  1  1  0  0  0  0
  4  1  1  0  0  0  0
  6  2  1  0  0  0  0
  6  9  1  0  0  0  0
  6 10  1  0  0  0  0
  7  2  1  0  0  0  0
  9 12  1  0  0  0  0
 11  6  1  0  0  0  0
 13  9  1  0  0  0  0
 14  9  1  0  0  0  0
M  END
$$$$
