butane_opt
 OpenBabel08242015413D

 14 13  0  0  0  0  0  0  0  0999 V2000
   -3.9084    0.2448   -0.0246 C   0  0  0  0  0  0  0  0  0  0  0  0
   -2.7192   -0.5758    0.1044 C   0  0  0  0  0  0  0  0  0  0  0  0
   -4.9131   -0.3759    0.0719 H   0  0  0  0  0  0  0  0  0  0  0  0
   -3.8707    0.9870   -1.0164 H   0  0  0  0  0  0  0  0  0  0  0  0
   -3.9432    0.7629    0.7372 H   0  0  0  0  0  0  0  0  0  0  0  0
   -1.4203    0.1909    0.0515 C   0  0  0  0  0  0  0  0  0  0  0  0
   -2.6870   -1.2605   -0.7249 H   0  0  0  0  0  0  0  0  0  0  0  0
   -2.7250   -1.2190    0.9785 H   0  0  0  0  0  0  0  0  0  0  0  0
   -0.1598   -0.7185   -0.0221 C   0  0  0  0  0  0  0  0  0  0  0  0
   -1.3993    0.8683    0.9384 H   0  0  0  0  0  0  0  0  0  0  0  0
   -1.4405    0.8194   -0.8194 H   0  0  0  0  0  0  0  0  0  0  0  0
   -0.2350   -1.1338    0.7252 H   0  0  0  0  0  0  0  0  0  0  0  0
    0.7332   -0.1404    0.1675 H   0  0  0  0  0  0  0  0  0  0  0  0
   -0.0365   -1.4892   -0.9642 H   0  0  0  0  0  0  0  0  0  0  0  0
  1  3  1  0  0  0  0
  1  2  1  0  0  0  0
  1  5  1  0  0  0  0
  2  8  1  0  0  0  0
  4  1  1  0  0  0  0
  6  2  1  0  0  0  0
  6 10  1  0  0  0  0
  7  2  1  0  0  0  0
  9  6  1  0  0  0  0
  9 13  1  0  0  0  0
  9 12  1  0  0  0  0
 11  6  1  0  0  0  0
 14  9  1  0  0  0  0
M  END
$$$$
