14
butane_opt
C  -3.958133   0.292712   0.065157
C  -2.696933  -0.648926  -0.019937
H  -4.838497  -0.259924  -0.007759
H  -3.980737   0.877577  -0.778317
H  -3.996176   0.938616   0.929901
C  -1.398816   0.170448  -0.005365
H  -2.776105  -1.421432  -0.941378
H  -2.625036  -1.187881   0.813949
C  -0.172605  -0.675313   0.067308
H  -1.327057   0.815355   0.820159
H  -1.306085   0.803959  -0.959531
H  -0.059088  -1.498285   1.084493
H   0.748936  -0.031018  -0.147737
H  -0.168954  -1.157544  -0.642058
