butane_opt
 OpenBabel08242015413D

 14 13  0  0  0  0  0  0  0  0999 V2000
   -3.9703    0.2806   -0.0213 C   0  0  0  0  0  0  0  0  0  0  0  0
   -2.6984   -0.6628    0.0829 C   0  0  0  0  0  0  0  0  0  0  0  0
   -4.7965   -0.2388    0.0754 H   0  0  0  0  0  0  0  0  0  0  0  0
   -4.0471    1.0288   -1.0318 H   0  0  0  0  0  0  0  0  0  0  0  0
   -4.0462    0.8390    0.7488 H   0  0  0  0  0  0  0  0  0  0  0  0
   -1.3903    0.1945    0.0666 C   0  0  0  0  0  0  0  0  0  0  0  0
   -2.6058   -1.3185   -0.7948 H   0  0  0  0  0  0  0  0  0  0  0  0
   -2.7331   -1.2641    0.9523 H   0  0  0  0  0  0  0  0  0  0  0  0
   -0.1611   -0.6803   -0.0074 C   0  0  0  0  0  0  0  0  0  0  0  0
   -1.3723    0.8799    0.9214 H   0  0  0  0  0  0  0  0  0  0  0  0
   -1.3860    0.7376   -0.7773 H   0  0  0  0  0  0  0  0  0  0  0  0
   -0.0005   -1.2732    0.8745 H   0  0  0  0  0  0  0  0  0  0  0  0
    0.8280   -0.0266   -0.0500 H   0  0  0  0  0  0  0  0  0  0  0  0
   -0.2377   -1.3987   -0.9364 H   0  0  0  0  0  0  0  0  0  0  0  0
  1  3  1  0  0  0  0
  1  2  1  0  0  0  0
  1  5  1  0  0  0  0
  2  8  1  0  0  0  0
  4  1  1  0  0  0  0
  6  2  1  0  0  0  0
  6 10  1  0  0  0  0
  7  2  1  0  0  0  0
  9  6  1  0  0  0  0
  9 12  1  0  0  0  0
 11  6  1  0  0  0  0
 13  9  1  0  0  0  0
 14  9  1  0  0  0  0
M  END
$$$$
