14
butane_opt
C  -3.958363   0.263333   0.014213
C  -2.705607  -0.614118   0.038395
H  -4.914888  -0.327902   0.023750
H  -4.017104   0.701937  -0.761458
H  -3.915441   0.987905   0.960247
C  -1.385264   0.209819  -0.020484
H  -2.764332  -1.241789  -0.788525
H  -2.719066  -1.327478   0.974799
C  -0.159484  -0.711560   0.045017
H  -1.395961   0.903742   0.822136
H  -1.390628   0.910854  -0.935469
H  -0.098938  -1.298990   0.906510
H   0.733597  -0.137100   0.178478
H  -0.036193  -1.427602  -0.855781
