14
butane_opt
C  -3.970331   0.280588  -0.021264
C  -2.698392  -0.662786   0.082867
H  -4.796527  -0.238808   0.075438
H  -4.047058   1.028805  -1.031782
H  -4.046232   0.838986   0.748827
C  -1.390303   0.194464   0.066610
H  -2.605829  -1.318508  -0.794761
H  -2.733139  -1.264125   0.952306
C  -0.161100  -0.680263  -0.007390
H  -1.372316   0.879885   0.921388
H  -1.385974   0.737588  -0.777313
H  -0.000514  -1.273229   0.874506
H   0.827954  -0.026585  -0.049981
H  -0.237744  -1.398750  -0.936435
