14
butane_opt
C  -3.970669   0.285328  -0.026026
C  -2.696493  -0.649817   0.060772
H  -4.858831  -0.268597  -0.017770
H  -4.014511   0.878756  -0.845269
H  -4.006733   1.005631   0.865521
C  -1.402870   0.163839   0.055209
H  -2.691426  -1.290578  -0.748716
H  -2.780825  -1.329620   0.992324
C  -0.126297  -0.669136   0.002203
H  -1.404770   0.927516   0.970259
H  -1.374883   0.792437  -0.782015
H  -0.124635  -1.406146   0.985485
H   0.822004  -0.049771  -0.227784
H  -0.246470  -1.290067  -0.859723
