butane_opt
 OpenBabel08242015413D

 14 13  0  0  0  0  0  0  0  0999 V2000
   -3.9590    0.2544   -0.0402 C   0  0  0  0  0  0  0  0  0  0  0  0
   -2.7059   -0.6175    0.1115 C   0  0  0  0  0  0  0  0  0  0  0  0
   -4.8493   -0.3668   -0.1531 H   0  0  0  0  0  0  0  0  0  0  0  0
   -3.8906    0.7728   -0.9039 H   0  0  0  0  0  0  0  0  0  0  0  0
   -4.0555    0.9632    0.8524 H   0  0  0  0  0  0  0  0  0  0  0  0
   -1.4020    0.2323    0.0516 C   0  0  0  0  0  0  0  0  0  0  0  0
   -2.7079   -1.1606   -0.6437 H   0  0  0  0  0  0  0  0  0  0  0  0
   -2.7835   -1.3119    1.0823 H   0  0  0  0  0  0  0  0  0  0  0  0
   -0.1369   -0.7074   -0.0257 C   0  0  0  0  0  0  0  0  0  0  0  0
   -1.2786    0.8775    0.9243 H   0  0  0  0  0  0  0  0  0  0  0  0
   -1.4526    0.8055   -0.7866 H   0  0  0  0  0  0  0  0  0  0  0  0
   -0.1524   -1.3006    0.8326 H   0  0  0  0  0  0  0  0  0  0  0  0
    0.6966   -0.1665    0.0257 H   0  0  0  0  0  0  0  0  0  0  0  0
   -0.0906   -1.5406   -0.9636 H   0  0  0  0  0  0  0  0  0  0  0  0
  1  2  1  0  0  0  0
  1  5  1  0  0  0  0
  2  8  1  0  0  0  0
  3  1  1  0  0  0  0
  4  1  1  0  0  0  0
  6  2  1  0  0  0  0
  6 10  1  0  0  0  0
  7  2  1  0  0  0  0
  9 13  1  0  0  0  0
  9  6  1  0  0  0  0
  9 12  1  0  0  0  0
 11  6  1  0  0  0  0
 14  9  1  0  0  0  0
M  END
$$$$
