butane_opt
 OpenBabel08242015413D

 14 13  0  0  0  0  0  0  0  0999 V2000
   -3.9584    0.2633    0.0142 C   0  0  0  0  0  0  0  0  0  0  0  0
   -2.7056   -0.6141    0.0384 C   0  0  0  0  0  0  0  0  0  0  0  0
   -4.9149   -0.3279    0.0238 H   0  0  0  0  0  0  0  0  0  0  0  0
   -4.0171    0.7019   -0.7615 H   0  0  0  0  0  0  0  0  0  0  0  0
   -3.9154    0.9879    0.9602 H   0  0  0  0  0  0  0  0  0  0  0  0
   -1.3853    0.2098   -0.0205 C   0  0  0  0  0  0  0  0  0  0  0  0
   -2.7643   -1.2418   -0.7885 H   0  0  0  0  0  0  0  0  0  0  0  0
   -2.7191   -1.3275    0.9748 H   0  0  0  0  0  0  0  0  0  0  0  0
   -0.1595   -0.7116    0.0450 C   0  0  0  0  0  0  0  0  0  0  0  0
   -1.3960    0.9037    0.8221 H   0  0  0  0  0  0  0  0  0  0  0  0
   -1.3906    0.9109   -0.9355 H   0  0  0  0  0  0  0  0  0  0  0  0
   -0.0989   -1.2990    0.9065 H   0  0  0  0  0  0  0  0  0  0  0  0
    0.7336   -0.1371    0.1785 H   0  0  0  0  0  0  0  0  0  0  0  0
   -0.0362   -1.4276   -0.8558 H   0  0  0  0  0  0  0  0  0  0  0  0
  1  3  1  0  0  0  0
  1  2  1  0  0  0  0
  1  5  1  0  0  0  0
  2  8  1  0  0  0  0
  4  1  1  0  0  0  0
  6  2  1  0  0  0  0
  6  9  1  0  0  0  0
  6 10  1  0  0  0  0
  7  2  1  0  0  0  0
  9 13  1  0  0  0  0
  9 12  1  0  0  0  0
 11  6  1  0  0  0  0
 14  9  1  0  0  0  0
M  END
$$$$
