14
butane_opt
C  -3.958975   0.254381  -0.040230
C  -2.705889  -0.617518   0.111452
H  -4.849294  -0.366758  -0.153133
H  -3.890646   0.772817  -0.903947
H  -4.055541   0.963166   0.852448
C  -1.402024   0.232331   0.051649
H  -2.707909  -1.160583  -0.643725
H  -2.783460  -1.311854   1.082256
C  -0.136893  -0.707355  -0.025652
H  -1.278550   0.877523   0.924308
H  -1.452606   0.805504  -0.786601
H  -0.152371  -1.300594   0.832623
H   0.696630  -0.166502   0.025689
H  -0.090594  -1.540556  -0.963599
