14
butane_opt
C  -3.948625   0.247641  -0.001577
C  -2.726621  -0.615320   0.054659
H  -4.829540  -0.314159   0.183760
H  -3.945722   1.076571  -1.040991
H  -3.967630   0.782574   0.711488
C  -1.394694   0.219061   0.052415
H  -2.786722  -1.302888  -0.825879
H  -2.720189  -1.282229   0.964457
C  -0.140419  -0.723163   0.002573
H  -1.363493   0.941066   0.934750
H  -1.402711   0.872251  -0.805207
H  -0.076251  -1.199444   0.812563
H   0.720125  -0.159436   0.072429
H  -0.115210  -1.431001  -0.889810
