14
butane_opt
C  -3.956474   0.263389  -0.014806
C  -2.708716  -0.638756   0.064665
H  -4.774774  -0.242155   0.198111
H  -4.073712   1.120536  -1.004043
H  -3.964692   0.730585   0.702647
C  -1.413878   0.182600   0.053114
H  -2.695168  -1.261762  -0.745794
H  -2.735891  -1.233798   0.942190
C  -0.146053  -0.687174  -0.016493
H  -1.356380   0.930065   0.999351
H  -1.367524   0.745153  -0.773131
H  -0.140653  -1.214815   0.822459
H   0.783062  -0.083718   0.113719
H  -0.012516  -1.391217  -0.890214
