14
butane_opt
C  -3.932940   0.249356   0.071201
C  -2.702495  -0.601970  -0.009124
H  -4.817583  -0.293056   0.085250
H  -4.037366   0.887996  -0.776578
H  -3.880184   0.903537   0.911679
C  -1.426255   0.193069  -0.045278
H  -2.819760  -1.305542  -0.883382
H  -2.640451  -1.234849   0.878812
C  -0.159695  -0.698523   0.086986
H  -1.445274   0.766288   0.723340
H  -1.293899   0.910233  -1.067991
H  -0.193058  -1.207623   0.909098
H   0.760972  -0.086349   0.238900
H  -0.009517  -1.514893  -0.849851
