14
butane_opt
C  -3.930880   0.251043   0.061495
C  -2.715239  -0.615439  -0.017226
H  -4.866033  -0.347251   0.186901
H  -4.141583   0.908073  -0.856484
H  -3.863045   0.894354   0.921138
C  -1.427847   0.221171  -0.041179
H  -2.797524  -1.375586  -0.898828
H  -2.703457  -1.203547   0.859636
C  -0.130482  -0.713621   0.069004
H  -1.429371   0.938723   0.873534
H  -1.336345   0.807259  -0.947200
H  -0.155911  -1.364436   1.004684
H   0.758165  -0.169181   0.102848
H  -0.022734  -1.274148  -0.675845
