butane_opt
 OpenBabel08242015413D

 14 13  0  0  0  0  0  0  0  0999 V2000
   -3.9321    0.2528   -0.0267 C   0  0  0  0  0  0  0  0  0  0  0  0
   -2.7031   -0.6121    0.0722 C   0  0  0  0  0  0  0  0  0  0  0  0
   -4.8635   -0.3235    0.2048 H   0  0  0  0  0  0  0  0  0  0  0  0
   -4.0347    1.1011   -1.1260 H   0  0  0  0  0  0  0  0  0  0  0  0
   -3.8278    0.7262    0.7159 H   0  0  0  0  0  0  0  0  0  0  0  0
   -1.3996    0.2023    0.0598 C   0  0  0  0  0  0  0  0  0  0  0  0
   -2.7149   -1.2426   -0.7455 H   0  0  0  0  0  0  0  0  0  0  0  0
   -2.7939   -1.2518    1.0115 H   0  0  0  0  0  0  0  0  0  0  0  0
   -0.1618   -0.7094   -0.0159 C   0  0  0  0  0  0  0  0  0  0  0  0
   -1.3451    1.0197    1.0404 H   0  0  0  0  0  0  0  0  0  0  0  0
   -1.5467    0.7182   -0.7343 H   0  0  0  0  0  0  0  0  0  0  0  0
   -0.1581   -1.2510    0.8246 H   0  0  0  0  0  0  0  0  0  0  0  0
    0.7806   -0.1106    0.0605 H   0  0  0  0  0  0  0  0  0  0  0  0
   -0.1582   -1.4540   -0.9151 H   0  0  0  0  0  0  0  0  0  0  0  0
  1  2  1  0  0  0  0
  1  3  1  0  0  0  0
  1  5  1  0  0  0  0
  2  8  1  0  0  0  0
  4  1  1  0  0  0  0
  6  2  1  0  0  0  0
  6 10  1  0  0  0  0
  7  2  1  0  0  0  0
  9  6  1  0  0  0  0
  9 13  1  0  0  0  0
  9 12  1  0  0  0  0
 11  6  1  0  0  0  0
 14  9  1  0  0  0  0
M  END
$$$$
