14
butane_opt
C  -3.928881   0.246016   0.039389
C  -2.699700  -0.600065   0.017863
H  -4.837546  -0.357468   0.042900
H  -3.987482   0.790153  -0.789383
H  -3.917678   1.040064   0.976911
C  -1.409037   0.198318  -0.031219
H  -2.755817  -1.266919  -0.827706
H  -2.705260  -1.211224   0.902053
C  -0.167342  -0.707669   0.061454
H  -1.446427   0.821480   0.779107
H  -1.422076   0.854322  -0.963627
H  -0.180160  -1.297223   0.967179
H   0.738661  -0.095444   0.104209
H  -0.047662  -1.393398  -0.794231
