14
butane_opt
C  -3.965373   0.272594   0.074535
C  -2.705546  -0.617022  -0.037658
H  -4.902813  -0.292677   0.294677
H  -4.118742   0.950044  -0.837858
H  -3.899732   0.949494   0.963290
C  -1.379262   0.161204  -0.061269
H  -2.674050  -1.326424  -0.905765
H  -2.674985  -1.242008   0.791241
C  -0.157881  -0.683416   0.102294
H  -1.385522   0.848481   0.789152
H  -1.260157   0.739888  -0.932657
H  -0.229773  -1.299879   0.994781
H   0.735875  -0.087781   0.100726
H  -0.107240  -1.308975  -0.745073
