butane_opt
 OpenBabel08242015413D

 14 13  0  0  0  0  0  0  0  0999 V2000
   -3.9475    0.2501    0.0477 C   0  0  0  0  0  0  0  0  0  0  0  0
   -2.7170   -0.5979    0.0252 C   0  0  0  0  0  0  0  0  0  0  0  0
   -4.8702   -0.3515   -0.0603 H   0  0  0  0  0  0  0  0  0  0  0  0
   -3.9038    0.7487   -0.7818 H   0  0  0  0  0  0  0  0  0  0  0  0
   -4.0307    1.0445    0.9855 H   0  0  0  0  0  0  0  0  0  0  0  0
   -1.3985    0.2054   -0.0256 C   0  0  0  0  0  0  0  0  0  0  0  0
   -2.7293   -1.3403   -0.8543 H   0  0  0  0  0  0  0  0  0  0  0  0
   -2.7317   -1.1778    0.8853 H   0  0  0  0  0  0  0  0  0  0  0  0
   -0.1415   -0.7054    0.0566 C   0  0  0  0  0  0  0  0  0  0  0  0
   -1.3953    0.8005    0.7425 H   0  0  0  0  0  0  0  0  0  0  0  0
   -1.3846    0.8673   -0.9418 H   0  0  0  0  0  0  0  0  0  0  0  0
   -0.1668   -1.4078    0.9828 H   0  0  0  0  0  0  0  0  0  0  0  0
    0.7293   -0.1544    0.0310 H   0  0  0  0  0  0  0  0  0  0  0  0
   -0.0734   -1.3347   -0.7714 H   0  0  0  0  0  0  0  0  0  0  0  0
  1  5  1  0  0  0  0
  2  1  1  0  0  0  0
  2  8  1  0  0  0  0
  3  1  1  0  0  0  0
  4  1  1  0  0  0  0
  6  2  1  0  0  0  0
  6  9  1  0  0  0  0
  6 10  1  0  0  0  0
  7  2  1  0  0  0  0
  9 12  1  0  0  0  0
 11  6  1  0  0  0  0
 13  9  1  0  0  0  0
 14  9  1  0  0  0  0
M  END
$$$$
