14
butane_opt
C  -3.965040   0.280591   0.053773
C  -2.693410  -0.659055   0.016096
H  -4.841181  -0.277778   0.154203
H  -4.029722   0.897661  -0.830205
H  -3.969267   1.007951   0.965934
C  -1.378165   0.180381  -0.047525
H  -2.712640  -1.320219  -0.851182
H  -2.711218  -1.187048   0.863285
C  -0.163516  -0.676900   0.069947
H  -1.432329   0.770994   0.720783
H  -1.285671   0.926311  -1.044624
H  -0.276893  -1.177331   0.914451
H   0.701034  -0.084704   0.300573
H  -0.063779  -1.540955  -0.865070
