butane_opt
 OpenBabel08242015413D

 14 13  0  0  0  0  0  0  0  0999 V2000
   -3.9650    0.2806    0.0538 C   0  0  0  0  0  0  0  0  0  0  0  0
   -2.6934   -0.6591    0.0161 C   0  0  0  0  0  0  0  0  0  0  0  0
   -4.8412   -0.2778    0.1542 H   0  0  0  0  0  0  0  0  0  0  0  0
   -4.0297    0.8977   -0.8302 H   0  0  0  0  0  0  0  0  0  0  0  0
   -3.9693    1.0080    0.9659 H   0  0  0  0  0  0  0  0  0  0  0  0
   -1.3782    0.1804   -0.0475 C   0  0  0  0  0  0  0  0  0  0  0  0
   -2.7126   -1.3202   -0.8512 H   0  0  0  0  0  0  0  0  0  0  0  0
   -2.7112   -1.1870    0.8633 H   0  0  0  0  0  0  0  0  0  0  0  0
   -0.1635   -0.6769    0.0699 C   0  0  0  0  0  0  0  0  0  0  0  0
   -1.4323    0.7710    0.7208 H   0  0  0  0  0  0  0  0  0  0  0  0
   -1.2857    0.9263   -1.0446 H   0  0  0  0  0  0  0  0  0  0  0  0
   -0.2769   -1.1773    0.9145 H   0  0  0  0  0  0  0  0  0  0  0  0
    0.7010   -0.0847    0.3006 H   0  0  0  0  0  0  0  0  0  0  0  0
   -0.0638   -1.5410   -0.8651 H   0  0  0  0  0  0  0  0  0  0  0  0
  1  3  1  0  0  0  0
  1  5  1  0  0  0  0
  2  1  1  0  0  0  0
  2  8  1  0  0  0  0
  4  1  1  0  0  0  0
  6  2  1  0  0  0  0
  6  9  1  0  0  0  0
  6 10  1  0  0  0  0
  7  2  1  0  0  0  0
  9 13  1  0  0  0  0
  9 12  1  0  0  0  0
 11  6  1  0  0  0  0
 14  9  1  0  0  0  0
M  END
$$$$
