butane_opt
 OpenBabel08242015413D

 14 13  0  0  0  0  0  0  0  0999 V2000
   -3.9754    0.2881    0.0555 C   0  0  0  0  0  0  0  0  0  0  0  0
   -2.7004   -0.6390    0.0154 C   0  0  0  0  0  0  0  0  0  0  0  0
   -4.9131   -0.3101   -0.1501 H   0  0  0  0  0  0  0  0  0  0  0  0
   -3.9636    0.7693   -0.7042 H   0  0  0  0  0  0  0  0  0  0  0  0
   -4.0852    1.1134    1.0015 H   0  0  0  0  0  0  0  0  0  0  0  0
   -1.3837    0.1487   -0.0409 C   0  0  0  0  0  0  0  0  0  0  0  0
   -2.7160   -1.3388   -0.8331 H   0  0  0  0  0  0  0  0  0  0  0  0
   -2.6455   -1.2494    0.9233 H   0  0  0  0  0  0  0  0  0  0  0  0
   -0.1474   -0.6681    0.0546 C   0  0  0  0  0  0  0  0  0  0  0  0
   -1.4262    0.8344    0.7825 H   0  0  0  0  0  0  0  0  0  0  0  0
   -1.3153    0.7934   -0.9298 H   0  0  0  0  0  0  0  0  0  0  0  0
   -0.1393   -1.3657    1.0080 H   0  0  0  0  0  0  0  0  0  0  0  0
    0.7495   -0.0855    0.0340 H   0  0  0  0  0  0  0  0  0  0  0  0
   -0.0892   -1.1950   -0.6876 H   0  0  0  0  0  0  0  0  0  0  0  0
  1  5  1  0  0  0  0
  2  1  1  0  0  0  0
  2  8  1  0  0  0  0
  3  1  1  0  0  0  0
  4  1  1  0  0  0  0
  6  2  1  0  0  0  0
  6  9  1  0  0  0  0
  6 10  1  0  0  0  0
  7  2  1  0  0  0  0
  9 12  1  0  0  0  0
 11  6  1  0  0  0  0
 13  9  1  0  0  0  0
 14  9  1  0  0  0  0
M  END
$$$$
