butane_opt
 OpenBabel08242015413D

 14 13  0  0  0  0  0  0  0  0999 V2000
   -3.9729    0.2811    0.0454 C   0  0  0  0  0  0  0  0  0  0  0  0
   -2.6890   -0.6390    0.0076 C   0  0  0  0  0  0  0  0  0  0  0  0
   -4.8376   -0.2494   -0.0439 H   0  0  0  0  0  0  0  0  0  0  0  0
   -3.9897    0.8200   -0.8186 H   0  0  0  0  0  0  0  0  0  0  0  0
   -4.0683    0.9414    0.9105 H   0  0  0  0  0  0  0  0  0  0  0  0
   -1.3950    0.1760    0.0038 C   0  0  0  0  0  0  0  0  0  0  0  0
   -2.7674   -1.3169   -0.8865 H   0  0  0  0  0  0  0  0  0  0  0  0
   -2.7158   -1.2121    0.8783 H   0  0  0  0  0  0  0  0  0  0  0  0
   -0.1445   -0.6886    0.0510 C   0  0  0  0  0  0  0  0  0  0  0  0
   -1.4137    0.8112    0.8421 H   0  0  0  0  0  0  0  0  0  0  0  0
   -1.3756    0.7912   -0.8785 H   0  0  0  0  0  0  0  0  0  0  0  0
   -0.0401   -1.4265    1.0027 H   0  0  0  0  0  0  0  0  0  0  0  0
    0.7964   -0.0080   -0.1145 H   0  0  0  0  0  0  0  0  0  0  0  0
   -0.2085   -1.1631   -0.7248 H   0  0  0  0  0  0  0  0  0  0  0  0
  1  5  1  0  0  0  0
  2  1  1  0  0  0  0
  2  8  1  0  0  0  0
  3  1  1  0  0  0  0
  4  1  1  0  0  0  0
  6  2  1  0  0  0  0
  6  9  1  0  0  0  0
  6 10  1  0  0  0  0
  7  2  1  0  0  0  0
  9 12  1  0  0  0  0
 11  6  1  0  0  0  0
 13  9  1  0  0  0  0
 14  9  1  0  0  0  0
M  END
$$$$
