butane_opt
 OpenBabel08242015413D

 14 13  0  0  0  0  0  0  0  0999 V2000
   -3.9776    0.2734    0.0495 C   0  0  0  0  0  0  0  0  0  0  0  0
   -2.6898   -0.6439   -0.0215 C   0  0  0  0  0  0  0  0  0  0  0  0
   -4.8209   -0.2788    0.2805 H   0  0  0  0  0  0  0  0  0  0  0  0
   -4.1272    1.0226   -0.8606 H   0  0  0  0  0  0  0  0  0  0  0  0
   -3.9023    0.9092    0.9092 H   0  0  0  0  0  0  0  0  0  0  0  0
   -1.3863    0.1871   -0.0213 C   0  0  0  0  0  0  0  0  0  0  0  0
   -2.7912   -1.3341   -0.9171 H   0  0  0  0  0  0  0  0  0  0  0  0
   -2.6611   -1.3156    0.8743 H   0  0  0  0  0  0  0  0  0  0  0  0
   -0.1452   -0.6746    0.0625 C   0  0  0  0  0  0  0  0  0  0  0  0
   -1.4508    0.8426    0.8400 H   0  0  0  0  0  0  0  0  0  0  0  0
   -1.3903    0.7732   -0.8970 H   0  0  0  0  0  0  0  0  0  0  0  0
   -0.2557   -1.3310    1.0069 H   0  0  0  0  0  0  0  0  0  0  0  0
    0.8083   -0.0719    0.1342 H   0  0  0  0  0  0  0  0  0  0  0  0
   -0.0565   -1.3668   -0.7730 H   0  0  0  0  0  0  0  0  0  0  0  0
  1  3  1  0  0  0  0
  1  5  1  0  0  0  0
  2  6  1  0  0  0  0
  2  1  1  0  0  0  0
  2  8  1  0  0  0  0
  4  1  1  0  0  0  0
  6  9  1  0  0  0  0
  6 10  1  0  0  0  0
  7  2  1  0  0  0  0
  9 13  1  0  0  0  0
  9 12  1  0  0  0  0
 11  6  1  0  0  0  0
 14  9  1  0  0  0  0
M  END
$$$$
