butane_opt
 OpenBabel08242015413D

 14 13  0  0  0  0  0  0  0  0999 V2000
   -3.9509    0.2765    0.0524 C   0  0  0  0  0  0  0  0  0  0  0  0
   -2.7002   -0.6193   -0.0249 C   0  0  0  0  0  0  0  0  0  0  0  0
   -4.8558   -0.2786    0.0976 H   0  0  0  0  0  0  0  0  0  0  0  0
   -4.0374    0.8154   -0.8201 H   0  0  0  0  0  0  0  0  0  0  0  0
   -4.0220    0.9869    0.9429 H   0  0  0  0  0  0  0  0  0  0  0  0
   -1.3956    0.1658    0.0089 C   0  0  0  0  0  0  0  0  0  0  0  0
   -2.7287   -1.3843   -0.9548 H   0  0  0  0  0  0  0  0  0  0  0  0
   -2.6033   -1.2425    0.8389 H   0  0  0  0  0  0  0  0  0  0  0  0
   -0.1535   -0.6827    0.0705 C   0  0  0  0  0  0  0  0  0  0  0  0
   -1.4385    0.8031    0.8313 H   0  0  0  0  0  0  0  0  0  0  0  0
   -1.3564    0.8251   -0.9650 H   0  0  0  0  0  0  0  0  0  0  0  0
   -0.0984   -1.4596    1.0691 H   0  0  0  0  0  0  0  0  0  0  0  0
    0.8291   -0.0534   -0.2001 H   0  0  0  0  0  0  0  0  0  0  0  0
   -0.3080   -1.1476   -0.6536 H   0  0  0  0  0  0  0  0  0  0  0  0
  1  3  1  0  0  0  0
  1  5  1  0  0  0  0
  2  6  1  0  0  0  0
  2  1  1  0  0  0  0
  2  8  1  0  0  0  0
  4  1  1  0  0  0  0
  6  9  1  0  0  0  0
  6 10  1  0  0  0  0
  7  2  1  0  0  0  0
  9 12  1  0  0  0  0
 11  6  1  0  0  0  0
 13  9  1  0  0  0  0
 14  9  1  0  0  0  0
M  END
$$$$
