14
butane_opt
C  -3.904676   0.255176   0.013690
C  -2.699607  -0.611464   0.028680
H  -4.861616  -0.350173  -0.013401
H  -3.897051   0.856311  -0.830241
H  -3.908714   0.916627   0.867607
C  -1.429374   0.212675   0.047025
H  -2.736963  -1.312941  -0.832992
H  -2.788383  -1.161392   0.853886
C  -0.163354  -0.704458   0.024793
H  -1.468064   0.824230   0.881115
H  -1.371116   0.843701  -0.859808
H  -0.094625  -1.528228   1.026838
H   0.713191  -0.119725  -0.244478
H  -0.247569  -1.265658  -0.771644
