butane_opt
 OpenBabel08242015413D

 14 13  0  0  0  0  0  0  0  0999 V2000
   -3.9047    0.2552    0.0137 C   0  0  0  0  0  0  0  0  0  0  0  0
   -2.6996   -0.6115    0.0287 C   0  0  0  0  0  0  0  0  0  0  0  0
   -4.8616   -0.3502   -0.0134 H   0  0  0  0  0  0  0  0  0  0  0  0
   -3.8971    0.8563   -0.8302 H   0  0  0  0  0  0  0  0  0  0  0  0
   -3.9087    0.9166    0.8676 H   0  0  0  0  0  0  0  0  0  0  0  0
   -1.4294    0.2127    0.0470 C   0  0  0  0  0  0  0  0  0  0  0  0
   -2.7370   -1.3129   -0.8330 H   0  0  0  0  0  0  0  0  0  0  0  0
   -2.7884   -1.1614    0.8539 H   0  0  0  0  0  0  0  0  0  0  0  0
   -0.1634   -0.7045    0.0248 C   0  0  0  0  0  0  0  0  0  0  0  0
   -1.4681    0.8242    0.8811 H   0  0  0  0  0  0  0  0  0  0  0  0
   -1.3711    0.8437   -0.8598 H   0  0  0  0  0  0  0  0  0  0  0  0
   -0.0946   -1.5282    1.0268 H   0  0  0  0  0  0  0  0  0  0  0  0
    0.7132   -0.1197   -0.2445 H   0  0  0  0  0  0  0  0  0  0  0  0
   -0.2476   -1.2657   -0.7716 H   0  0  0  0  0  0  0  0  0  0  0  0
  1  2  1  0  0  0  0
  1  5  1  0  0  0  0
  2  6  1  0  0  0  0
  2  8  1  0  0  0  0
  3  1  1  0  0  0  0
  4  1  1  0  0  0  0
  6 10  1  0  0  0  0
  7  2  1  0  0  0  0
  9  6  1  0  0  0  0
  9 12  1  0  0  0  0
 11  6  1  0  0  0  0
 13  9  1  0  0  0  0
 14  9  1  0  0  0  0
M  END
$$$$
