14
butane_opt
C  -3.977633   0.273390   0.049542
C  -2.689828  -0.643903  -0.021514
H  -4.820887  -0.278791   0.280520
H  -4.127243   1.022591  -0.860569
H  -3.902299   0.909224   0.909167
C  -1.386286   0.187076  -0.021296
H  -2.791216  -1.334139  -0.917077
H  -2.661093  -1.315610   0.874335
C  -0.145205  -0.674605   0.062548
H  -1.450830   0.842560   0.840004
H  -1.390277   0.773173  -0.896961
H  -0.255720  -1.330959   1.006889
H   0.808264  -0.071937   0.134236
H  -0.056531  -1.366767  -0.772998
