14
butane_opt
C  -3.967606   0.274685   0.052484
C  -2.709996  -0.629107   0.034801
H  -4.828654  -0.255855  -0.168237
H  -3.955372   0.831621  -0.792875
H  -4.085877   1.069788   0.930743
C  -1.396057   0.156232  -0.019535
H  -2.711684  -1.407495  -0.850054
H  -2.676633  -1.203667   0.884970
C  -0.130376  -0.672221   0.052490
H  -1.407401   0.774061   0.761132
H  -1.375553   0.824187  -0.942795
H  -0.173085  -1.330024   0.962776
H   0.792588  -0.081786  -0.003601
H  -0.158452  -1.240209  -0.771474
