butane_opt
 OpenBabel08242015413D

 14 13  0  0  0  0  0  0  0  0999 V2000
   -3.9301    0.2474    0.0433 C   0  0  0  0  0  0  0  0  0  0  0  0
   -2.7048   -0.6021    0.0044 C   0  0  0  0  0  0  0  0  0  0  0  0
   -4.8531   -0.3426    0.1353 H   0  0  0  0  0  0  0  0  0  0  0  0
   -4.0395    0.9190   -0.8976 H   0  0  0  0  0  0  0  0  0  0  0  0
   -3.9232    0.8561    0.8745 H   0  0  0  0  0  0  0  0  0  0  0  0
   -1.4140    0.2026   -0.0116 C   0  0  0  0  0  0  0  0  0  0  0  0
   -2.7505   -1.3101   -0.8690 H   0  0  0  0  0  0  0  0  0  0  0  0
   -2.6829   -1.2199    0.8786 H   0  0  0  0  0  0  0  0  0  0  0  0
   -0.1522   -0.7089    0.0567 C   0  0  0  0  0  0  0  0  0  0  0  0
   -1.4141    0.9466    0.8618 H   0  0  0  0  0  0  0  0  0  0  0  0
   -1.4008    0.8275   -0.8959 H   0  0  0  0  0  0  0  0  0  0  0  0
   -0.1131   -1.3408    0.9872 H   0  0  0  0  0  0  0  0  0  0  0  0
    0.7228   -0.1237    0.0233 H   0  0  0  0  0  0  0  0  0  0  0  0
   -0.1410   -1.3595   -0.7761 H   0  0  0  0  0  0  0  0  0  0  0  0
  1  3  1  0  0  0  0
  1  5  1  0  0  0  0
  2  1  1  0  0  0  0
  2  8  1  0  0  0  0
  4  1  1  0  0  0  0
  6  2  1  0  0  0  0
  6  9  1  0  0  0  0
  6 10  1  0  0  0  0
  7  2  1  0  0  0  0
  9 12  1  0  0  0  0
 11  6  1  0  0  0  0
 13  9  1  0  0  0  0
 14  9  1  0  0  0  0
M  END
$$$$
