butane_opt
 OpenBabel08242015413D

 14 13  0  0  0  0  0  0  0  0999 V2000
   -3.9346    0.2440    0.0557 C   0  0  0  0  0  0  0  0  0  0  0  0
   -2.6982   -0.5902   -0.0190 C   0  0  0  0  0  0  0  0  0  0  0  0
   -4.9002   -0.4247    0.1059 H   0  0  0  0  0  0  0  0  0  0  0  0
   -3.9378    0.8630   -0.8232 H   0  0  0  0  0  0  0  0  0  0  0  0
   -3.7841    1.0116    0.9872 H   0  0  0  0  0  0  0  0  0  0  0  0
   -1.4238    0.2036   -0.0292 C   0  0  0  0  0  0  0  0  0  0  0  0
   -2.7224   -1.3884   -0.9243 H   0  0  0  0  0  0  0  0  0  0  0  0
   -2.6778   -1.1385    0.8427 H   0  0  0  0  0  0  0  0  0  0  0  0
   -0.1662   -0.7139    0.0626 C   0  0  0  0  0  0  0  0  0  0  0  0
   -1.4063    0.9324    0.9016 H   0  0  0  0  0  0  0  0  0  0  0  0
   -1.3850    0.7705   -0.9005 H   0  0  0  0  0  0  0  0  0  0  0  0
   -0.1195   -1.5627    1.1285 H   0  0  0  0  0  0  0  0  0  0  0  0
    0.7378   -0.1239   -0.0977 H   0  0  0  0  0  0  0  0  0  0  0  0
   -0.1481   -1.1276   -0.5910 H   0  0  0  0  0  0  0  0  0  0  0  0
  1  3  1  0  0  0  0
  1  5  1  0  0  0  0
  2  1  1  0  0  0  0
  2  8  1  0  0  0  0
  4  1  1  0  0  0  0
  6  2  1  0  0  0  0
  6  9  1  0  0  0  0
  6 10  1  0  0  0  0
  7  2  1  0  0  0  0
  9 12  1  0  0  0  0
 11  6  1  0  0  0  0
 13  9  1  0  0  0  0
 14  9  1  0  0  0  0
M  END
$$$$
