butane_opt
 OpenBabel08242015413D

 14 13  0  0  0  0  0  0  0  0999 V2000
   -3.9433    0.2565   -0.0418 C   0  0  0  0  0  0  0  0  0  0  0  0
   -2.7199   -0.6112    0.0909 C   0  0  0  0  0  0  0  0  0  0  0  0
   -4.9081   -0.3796    0.1011 H   0  0  0  0  0  0  0  0  0  0  0  0
   -4.0033    0.9995   -0.9919 H   0  0  0  0  0  0  0  0  0  0  0  0
   -3.9274    0.8054    0.7263 H   0  0  0  0  0  0  0  0  0  0  0  0
   -1.4128    0.1925    0.0679 C   0  0  0  0  0  0  0  0  0  0  0  0
   -2.6586   -1.1931   -0.7248 H   0  0  0  0  0  0  0  0  0  0  0  0
   -2.6715   -1.2480    1.0070 H   0  0  0  0  0  0  0  0  0  0  0  0
   -0.1432   -0.7008   -0.0251 C   0  0  0  0  0  0  0  0  0  0  0  0
   -1.3043    0.9975    0.9997 H   0  0  0  0  0  0  0  0  0  0  0  0
   -1.4813    0.7110   -0.7409 H   0  0  0  0  0  0  0  0  0  0  0  0
   -0.0826   -1.3169    0.8398 H   0  0  0  0  0  0  0  0  0  0  0  0
    0.7712   -0.1040    0.0290 H   0  0  0  0  0  0  0  0  0  0  0  0
   -0.1201   -1.4022   -0.9211 H   0  0  0  0  0  0  0  0  0  0  0  0
  1  2  1  0  0  0  0
  1  3  1  0  0  0  0
  1  5  1  0  0  0  0
  2  8  1  0  0  0  0
  4  1  1  0  0  0  0
  6  2  1  0  0  0  0
  6 10  1  0  0  0  0
  7  2  1  0  0  0  0
  9 13  1  0  0  0  0
  9  6  1  0  0  0  0
  9 12  1  0  0  0  0
 11  6  1  0  0  0  0
 14  9  1  0  0  0  0
M  END
$$$$
