14
butane_opt
C  -3.926717   0.270343   0.014325
C  -2.689191  -0.626840   0.018688
H  -4.841725  -0.331813   0.229589
H  -4.039532   1.080915  -1.043569
H  -3.875307   0.804901   0.774502
C  -1.410726   0.161529   0.026416
H  -2.702696  -1.220580  -0.779587
H  -2.660926  -1.321281   1.005075
C  -0.180413  -0.670154   0.033248
H  -1.408850   0.914599   0.940774
H  -1.437316   0.760142  -0.821989
H  -0.182913  -1.160621   0.854512
H   0.737846  -0.115873   0.054423
H  -0.131138  -1.497783  -0.927482
