butane_opt
 OpenBabel08242015413D

 14 13  0  0  0  0  0  0  0  0999 V2000
   -3.9629    0.2579   -0.0491 C   0  0  0  0  0  0  0  0  0  0  0  0
   -2.7019   -0.5979    0.1175 C   0  0  0  0  0  0  0  0  0  0  0  0
   -4.8383   -0.3113   -0.1478 H   0  0  0  0  0  0  0  0  0  0  0  0
   -3.8705    0.6958   -0.8187 H   0  0  0  0  0  0  0  0  0  0  0  0
   -4.0237    1.0171    0.8712 H   0  0  0  0  0  0  0  0  0  0  0  0
   -1.3946    0.1918    0.0515 C   0  0  0  0  0  0  0  0  0  0  0  0
   -2.7182   -1.1619   -0.6723 H   0  0  0  0  0  0  0  0  0  0  0  0
   -2.7807   -1.3264    1.0351 H   0  0  0  0  0  0  0  0  0  0  0  0
   -0.1523   -0.7055   -0.0211 C   0  0  0  0  0  0  0  0  0  0  0  0
   -1.2952    0.8721    0.9006 H   0  0  0  0  0  0  0  0  0  0  0  0
   -1.4440    0.7876   -0.8179 H   0  0  0  0  0  0  0  0  0  0  0  0
   -0.0916   -1.2944    0.8555 H   0  0  0  0  0  0  0  0  0  0  0  0
    0.7335   -0.1280    0.0220 H   0  0  0  0  0  0  0  0  0  0  0  0
   -0.1583   -1.3871   -0.9545 H   0  0  0  0  0  0  0  0  0  0  0  0
  1  2  1  0  0  0  0
  1  5  1  0  0  0  0
  2  8  1  0  0  0  0
  3  1  1  0  0  0  0
  4  1  1  0  0  0  0
  6  2  1  0  0  0  0
  6 10  1  0  0  0  0
  7  2  1  0  0  0  0
  9 13  1  0  0  0  0
  9  6  1  0  0  0  0
  9 12  1  0  0  0  0
 11  6  1  0  0  0  0
 14  9  1  0  0  0  0
M  END
$$$$
