14
butane_opt
C  -3.963157   0.274106  -0.041644
C  -2.700181  -0.643935   0.092700
H  -4.774584  -0.221664   0.053882
H  -4.015616   0.890752  -0.901894
H  -4.024219   0.941373   0.841680
C  -1.407461   0.183681   0.045764
H  -2.672362  -1.278031  -0.713347
H  -2.757012  -1.334819   1.063791
C  -0.141605  -0.672845  -0.012315
H  -1.338776   0.833208   0.895357
H  -1.391506   0.762639  -0.775859
H  -0.138247  -1.181399   0.796600
H   0.764733  -0.142302   0.088036
H  -0.133568  -1.420338  -0.931089
