butane_opt
 OpenBabel08242015413D

 14 13  0  0  0  0  0  0  0  0999 V2000
   -3.9632    0.2741   -0.0416 C   0  0  0  0  0  0  0  0  0  0  0  0
   -2.7002   -0.6439    0.0927 C   0  0  0  0  0  0  0  0  0  0  0  0
   -4.7746   -0.2217    0.0539 H   0  0  0  0  0  0  0  0  0  0  0  0
   -4.0156    0.8908   -0.9019 H   0  0  0  0  0  0  0  0  0  0  0  0
   -4.0242    0.9414    0.8417 H   0  0  0  0  0  0  0  0  0  0  0  0
   -1.4075    0.1837    0.0458 C   0  0  0  0  0  0  0  0  0  0  0  0
   -2.6724   -1.2780   -0.7133 H   0  0  0  0  0  0  0  0  0  0  0  0
   -2.7570   -1.3348    1.0638 H   0  0  0  0  0  0  0  0  0  0  0  0
   -0.1416   -0.6728   -0.0123 C   0  0  0  0  0  0  0  0  0  0  0  0
   -1.3388    0.8332    0.8954 H   0  0  0  0  0  0  0  0  0  0  0  0
   -1.3915    0.7626   -0.7759 H   0  0  0  0  0  0  0  0  0  0  0  0
   -0.1382   -1.1814    0.7966 H   0  0  0  0  0  0  0  0  0  0  0  0
    0.7647   -0.1423    0.0880 H   0  0  0  0  0  0  0  0  0  0  0  0
   -0.1336   -1.4203   -0.9311 H   0  0  0  0  0  0  0  0  0  0  0  0
  1  3  1  0  0  0  0
  1  2  1  0  0  0  0
  1  5  1  0  0  0  0
  2  8  1  0  0  0  0
  4  1  1  0  0  0  0
  6  2  1  0  0  0  0
  6 10  1  0  0  0  0
  7  2  1  0  0  0  0
  9  6  1  0  0  0  0
  9 13  1  0  0  0  0
  9 12  1  0  0  0  0
 11  6  1  0  0  0  0
 14  9  1  0  0  0  0
M  END
$$$$
