14
butane_opt
C  -3.962906   0.257900  -0.049065
C  -2.701893  -0.597875   0.117512
H  -4.838326  -0.311313  -0.147821
H  -3.870532   0.695796  -0.818679
H  -4.023714   1.017115   0.871174
C  -1.394560   0.191825   0.051500
H  -2.718237  -1.161941  -0.672260
H  -2.780710  -1.326353   1.035131
C  -0.152256  -0.705469  -0.021107
H  -1.295221   0.872147   0.900626
H  -1.443957   0.787553  -0.817873
H  -0.091641  -1.294448   0.855547
H   0.733463  -0.127992   0.021959
H  -0.158294  -1.387139  -0.954537
