14
butane_opt
C  -3.951299   0.258909   0.038799
C  -2.689983  -0.619318   0.008572
H  -4.909785  -0.382618  -0.029882
H  -3.974624   0.647732  -0.721965
H  -4.004837   1.084057   0.996435
C  -1.406529   0.220993  -0.027436
H  -2.721858  -1.274884  -0.833011
H  -2.775138  -1.248297   0.900889
C  -0.150567  -0.709781   0.066231
H  -1.373231   0.850401   0.797471
H  -1.412746   0.901041  -0.891773
H  -0.057716  -1.431765   1.073738
H   0.713435  -0.150174  -0.080155
H  -0.114996  -1.297612  -0.768459
