butane_opt
 OpenBabel08242015413D

 14 13  0  0  0  0  0  0  0  0999 V2000
   -3.9647    0.2697   -0.0007 C   0  0  0  0  0  0  0  0  0  0  0  0
   -2.6949   -0.6244    0.0423 C   0  0  0  0  0  0  0  0  0  0  0  0
   -4.8778   -0.2895    0.0398 H   0  0  0  0  0  0  0  0  0  0  0  0
   -4.0208    0.9283   -0.9216 H   0  0  0  0  0  0  0  0  0  0  0  0
   -3.9772    0.9724    0.8921 H   0  0  0  0  0  0  0  0  0  0  0  0
   -1.3916    0.1681    0.0373 C   0  0  0  0  0  0  0  0  0  0  0  0
   -2.6533   -1.2998   -0.8023 H   0  0  0  0  0  0  0  0  0  0  0  0
   -2.7716   -1.2594    0.9716 H   0  0  0  0  0  0  0  0  0  0  0  0
   -0.1570   -0.6857    0.0193 C   0  0  0  0  0  0  0  0  0  0  0  0
   -1.3206    0.8994    0.9287 H   0  0  0  0  0  0  0  0  0  0  0  0
   -1.3575    0.7553   -0.8379 H   0  0  0  0  0  0  0  0  0  0  0  0
   -0.1156   -1.3608    0.9446 H   0  0  0  0  0  0  0  0  0  0  0  0
    0.7674   -0.0715   -0.1391 H   0  0  0  0  0  0  0  0  0  0  0  0
   -0.1943   -1.2756   -0.8074 H   0  0  0  0  0  0  0  0  0  0  0  0
  1  3  1  0  0  0  0
  1  2  1  0  0  0  0
  1  5  1  0  0  0  0
  2  8  1  0  0  0  0
  4  1  1  0  0  0  0
  6  2  1  0  0  0  0
  6 10  1  0  0  0  0
  7  2  1  0  0  0  0
  9  6  1  0  0  0  0
  9 12  1  0  0  0  0
 11  6  1  0  0  0  0
 13  9  1  0  0  0  0
 14  9  1  0  0  0  0
M  END
$$$$
