butane_opt
 OpenBabel08242015413D

 14 13  0  0  0  0  0  0  0  0999 V2000
   -3.9589    0.2874   -0.0236 C   0  0  0  0  0  0  0  0  0  0  0  0
   -2.6898   -0.6359    0.0693 C   0  0  0  0  0  0  0  0  0  0  0  0
   -4.9031   -0.3049    0.0530 H   0  0  0  0  0  0  0  0  0  0  0  0
   -3.8727    0.9899   -1.0063 H   0  0  0  0  0  0  0  0  0  0  0  0
   -4.0407    0.8445    0.7335 H   0  0  0  0  0  0  0  0  0  0  0  0
   -1.3884    0.1636    0.0692 C   0  0  0  0  0  0  0  0  0  0  0  0
   -2.6556   -1.3184   -0.7724 H   0  0  0  0  0  0  0  0  0  0  0  0
   -2.7018   -1.3233    1.0478 H   0  0  0  0  0  0  0  0  0  0  0  0
   -0.1724   -0.6753   -0.0209 C   0  0  0  0  0  0  0  0  0  0  0  0
   -1.3725    0.9843    1.0350 H   0  0  0  0  0  0  0  0  0  0  0  0
   -1.4376    0.6739   -0.7079 H   0  0  0  0  0  0  0  0  0  0  0  0
   -0.0460   -1.3415    0.8967 H   0  0  0  0  0  0  0  0  0  0  0  0
    0.7522   -0.0482   -0.1677 H   0  0  0  0  0  0  0  0  0  0  0  0
   -0.2447   -1.2938   -0.8062 H   0  0  0  0  0  0  0  0  0  0  0  0
  1  3  1  0  0  0  0
  1  2  1  0  0  0  0
  1  5  1  0  0  0  0
  2  8  1  0  0  0  0
  4  1  1  0  0  0  0
  6  2  1  0  0  0  0
  6 10  1  0  0  0  0
  7  2  1  0  0  0  0
  9  6  1  0  0  0  0
  9 12  1  0  0  0  0
 11  6  1  0  0  0  0
 13  9  1  0  0  0  0
 14  9  1  0  0  0  0
M  END
$$$$
