butane_opt
 OpenBabel08242015413D

 14 13  0  0  0  0  0  0  0  0999 V2000
   -3.9513    0.2920    0.0616 C   0  0  0  0  0  0  0  0  0  0  0  0
   -2.6877   -0.6344    0.0015 C   0  0  0  0  0  0  0  0  0  0  0  0
   -4.8723   -0.3685   -0.0537 H   0  0  0  0  0  0  0  0  0  0  0  0
   -3.9309    0.8161   -0.7781 H   0  0  0  0  0  0  0  0  0  0  0  0
   -3.9909    1.0964    0.9974 H   0  0  0  0  0  0  0  0  0  0  0  0
   -1.3928    0.1455   -0.0386 C   0  0  0  0  0  0  0  0  0  0  0  0
   -2.8025   -1.2680   -0.8634 H   0  0  0  0  0  0  0  0  0  0  0  0
   -2.6014   -1.2260    0.8841 H   0  0  0  0  0  0  0  0  0  0  0  0
   -0.1697   -0.6667    0.0732 C   0  0  0  0  0  0  0  0  0  0  0  0
   -1.3814    0.7461    0.7806 H   0  0  0  0  0  0  0  0  0  0  0  0
   -1.3279    0.8012   -0.9352 H   0  0  0  0  0  0  0  0  0  0  0  0
   -0.3145   -1.3518    0.9905 H   0  0  0  0  0  0  0  0  0  0  0  0
    0.7367   -0.0765    0.0214 H   0  0  0  0  0  0  0  0  0  0  0  0
   -0.1184   -1.2819   -0.7728 H   0  0  0  0  0  0  0  0  0  0  0  0
  1  5  1  0  0  0  0
  2  1  1  0  0  0  0
  2  8  1  0  0  0  0
  3  1  1  0  0  0  0
  4  1  1  0  0  0  0
  6  2  1  0  0  0  0
  6  9  1  0  0  0  0
  6 10  1  0  0  0  0
  7  2  1  0  0  0  0
  9 12  1  0  0  0  0
 11  6  1  0  0  0  0
 13  9  1  0  0  0  0
 14  9  1  0  0  0  0
M  END
$$$$
