14
butane_opt
C  -3.955982   0.268630  -0.032935
C  -2.693938  -0.635646   0.114716
H  -4.810377  -0.255595  -0.216231
H  -3.954784   0.884871  -0.912747
H  -4.113956   1.010367   0.881146
C  -1.400729   0.172945   0.048832
H  -2.654560  -1.250155  -0.710361
H  -2.728411  -1.289593   1.066890
C  -0.151146  -0.681422  -0.020284
H  -1.249041   0.867607   0.901523
H  -1.467267   0.726339  -0.813895
H  -0.180322  -1.213321   0.838643
H   0.765343  -0.099050  -0.008301
H  -0.197035  -1.349463  -0.911402
