butane_opt
 OpenBabel08242015413D

 14 13  0  0  0  0  0  0  0  0999 V2000
   -3.9455    0.2557   -0.0269 C   0  0  0  0  0  0  0  0  0  0  0  0
   -2.7177   -0.6041    0.0752 C   0  0  0  0  0  0  0  0  0  0  0  0
   -4.9345   -0.4043    0.1332 H   0  0  0  0  0  0  0  0  0  0  0  0
   -3.9819    1.1033   -1.0878 H   0  0  0  0  0  0  0  0  0  0  0  0
   -3.9760    0.7067    0.7374 H   0  0  0  0  0  0  0  0  0  0  0  0
   -1.3987    0.2076    0.0736 C   0  0  0  0  0  0  0  0  0  0  0  0
   -2.7027   -1.2641   -0.7579 H   0  0  0  0  0  0  0  0  0  0  0  0
   -2.7431   -1.2509    1.0002 H   0  0  0  0  0  0  0  0  0  0  0  0
   -0.1406   -0.7194   -0.0212 C   0  0  0  0  0  0  0  0  0  0  0  0
   -1.2911    1.0073    0.9873 H   0  0  0  0  0  0  0  0  0  0  0  0
   -1.4523    0.7487   -0.7488 H   0  0  0  0  0  0  0  0  0  0  0  0
   -0.0496   -1.2635    0.8425 H   0  0  0  0  0  0  0  0  0  0  0  0
    0.7411   -0.1285    0.0206 H   0  0  0  0  0  0  0  0  0  0  0  0
   -0.1801   -1.4186   -0.9166 H   0  0  0  0  0  0  0  0  0  0  0  0
  1  2  1  0  0  0  0
  1  3  1  0  0  0  0
  1  5  1  0  0  0  0
  2  8  1  0  0  0  0
  4  1  1  0  0  0  0
  6  2  1  0  0  0  0
  6 10  1  0  0  0  0
  7  2  1  0  0  0  0
  9 13  1  0  0  0  0
  9  6  1  0  0  0  0
  9 12  1  0  0  0  0
 11  6  1  0  0  0  0
 14  9  1  0  0  0  0
M  END
$$$$
