butane_opt
 OpenBabel08242015413D

 14 13  0  0  0  0  0  0  0  0999 V2000
   -3.9283    0.2455   -0.0310 C   0  0  0  0  0  0  0  0  0  0  0  0
   -2.6984   -0.6082    0.1133 C   0  0  0  0  0  0  0  0  0  0  0  0
   -4.8745   -0.3627   -0.2220 H   0  0  0  0  0  0  0  0  0  0  0  0
   -3.7792    0.7553   -0.8847 H   0  0  0  0  0  0  0  0  0  0  0  0
   -4.0178    1.0252    0.8735 H   0  0  0  0  0  0  0  0  0  0  0  0
   -1.4107    0.2160    0.0669 C   0  0  0  0  0  0  0  0  0  0  0  0
   -2.6394   -1.1799   -0.7107 H   0  0  0  0  0  0  0  0  0  0  0  0
   -2.8956   -1.2216    1.0154 H   0  0  0  0  0  0  0  0  0  0  0  0
   -0.1741   -0.7169   -0.0240 C   0  0  0  0  0  0  0  0  0  0  0  0
   -1.3502    0.8624    0.8867 H   0  0  0  0  0  0  0  0  0  0  0  0
   -1.4517    0.9068   -0.8778 H   0  0  0  0  0  0  0  0  0  0  0  0
   -0.0158   -1.3319    0.8668 H   0  0  0  0  0  0  0  0  0  0  0  0
    0.7282   -0.1670   -0.0608 H   0  0  0  0  0  0  0  0  0  0  0  0
   -0.1859   -1.4157   -0.9235 H   0  0  0  0  0  0  0  0  0  0  0  0
  1  2  1  0  0  0  0
  1  5  1  0  0  0  0
  2  8  1  0  0  0  0
  3  1  1  0  0  0  0
  4  1  1  0  0  0  0
  6  2  1  0  0  0  0
  6 10  1  0  0  0  0
  7  2  1  0  0  0  0
  9  6  1  0  0  0  0
  9 12  1  0  0  0  0
 11  6  1  0  0  0  0
 13  9  1  0  0  0  0
 14  9  1  0  0  0  0
M  END
$$$$
