14
butane_opt
C  -3.928301   0.245451  -0.031007
C  -2.698400  -0.608152   0.113285
H  -4.874497  -0.362730  -0.222049
H  -3.779173   0.755325  -0.884690
H  -4.017773   1.025203   0.873541
C  -1.410719   0.215966   0.066869
H  -2.639377  -1.179915  -0.710692
H  -2.895603  -1.221577   1.015371
C  -0.174114  -0.716860  -0.024005
H  -1.350238   0.862374   0.886700
H  -1.451688   0.906794  -0.877812
H  -0.015842  -1.331877   0.866750
H   0.728190  -0.167027  -0.060767
H  -0.185852  -1.415684  -0.923532
