14
butane_opt
C  -3.945475   0.255734  -0.026910
C  -2.717744  -0.604062   0.075223
H  -4.934547  -0.404342   0.133213
H  -3.981878   1.103339  -1.087841
H  -3.976045   0.706675   0.737448
C  -1.398655   0.207644   0.073554
H  -2.702714  -1.264136  -0.757914
H  -2.743139  -1.250925   1.000171
C  -0.140566  -0.719400  -0.021202
H  -1.291137   1.007316   0.987271
H  -1.452288   0.748714  -0.748815
H  -0.049616  -1.263481   0.842518
H   0.741102  -0.128517   0.020638
H  -0.180070  -1.418610  -0.916562
