butane_opt
 OpenBabel08242015413D

 14 13  0  0  0  0  0  0  0  0999 V2000
   -3.9532    0.2940    0.0739 C   0  0  0  0  0  0  0  0  0  0  0  0
   -2.7034   -0.6316   -0.0403 C   0  0  0  0  0  0  0  0  0  0  0  0
   -4.8892   -0.3195    0.2398 H   0  0  0  0  0  0  0  0  0  0  0  0
   -4.0816    0.8918   -0.8258 H   0  0  0  0  0  0  0  0  0  0  0  0
   -3.9491    0.9307    0.8941 H   0  0  0  0  0  0  0  0  0  0  0  0
   -1.3920    0.1503   -0.0227 C   0  0  0  0  0  0  0  0  0  0  0  0
   -2.7400   -1.3767   -0.9223 H   0  0  0  0  0  0  0  0  0  0  0  0
   -2.6379   -1.1683    0.7963 H   0  0  0  0  0  0  0  0  0  0  0  0
   -0.1600   -0.6803    0.0871 C   0  0  0  0  0  0  0  0  0  0  0  0
   -1.4384    0.7459    0.7506 H   0  0  0  0  0  0  0  0  0  0  0  0
   -1.1803    0.8534   -0.9732 H   0  0  0  0  0  0  0  0  0  0  0  0
   -0.1623   -1.3147    0.9794 H   0  0  0  0  0  0  0  0  0  0  0  0
    0.7428   -0.0491    0.0158 H   0  0  0  0  0  0  0  0  0  0  0  0
   -0.1808   -1.2531   -0.6878 H   0  0  0  0  0  0  0  0  0  0  0  0
  1  3  1  0  0  0  0
  1  5  1  0  0  0  0
  2  6  1  0  0  0  0
  2  1  1  0  0  0  0
  2  8  1  0  0  0  0
  4  1  1  0  0  0  0
  6  9  1  0  0  0  0
  6 10  1  0  0  0  0
  7  2  1  0  0  0  0
  9 12  1  0  0  0  0
 11  6  1  0  0  0  0
 13  9  1  0  0  0  0
 14  9  1  0  0  0  0
M  END
$$$$
