butane_opt
 OpenBabel08242015413D

 14 13  0  0  0  0  0  0  0  0999 V2000
   -3.9483    0.2924    0.0492 C   0  0  0  0  0  0  0  0  0  0  0  0
   -2.6824   -0.6264   -0.0128 C   0  0  0  0  0  0  0  0  0  0  0  0
   -4.8670   -0.3427    0.3037 H   0  0  0  0  0  0  0  0  0  0  0  0
   -4.0085    1.0053   -0.9035 H   0  0  0  0  0  0  0  0  0  0  0  0
   -3.8853    0.8065    0.8560 H   0  0  0  0  0  0  0  0  0  0  0  0
   -1.3860    0.1500   -0.0213 C   0  0  0  0  0  0  0  0  0  0  0  0
   -2.7154   -1.3820   -0.9140 H   0  0  0  0  0  0  0  0  0  0  0  0
   -2.6355   -1.2260    0.8663 H   0  0  0  0  0  0  0  0  0  0  0  0
   -0.1941   -0.6773    0.0646 C   0  0  0  0  0  0  0  0  0  0  0  0
   -1.4659    0.9554    0.8543 H   0  0  0  0  0  0  0  0  0  0  0  0
   -1.3374    0.7468   -0.8784 H   0  0  0  0  0  0  0  0  0  0  0  0
   -0.2342   -1.3271    1.0273 H   0  0  0  0  0  0  0  0  0  0  0  0
    0.8122   -0.0130    0.0514 H   0  0  0  0  0  0  0  0  0  0  0  0
   -0.1701   -1.3466   -0.7898 H   0  0  0  0  0  0  0  0  0  0  0  0
  1  3  1  0  0  0  0
  1  5  1  0  0  0  0
  2  1  1  0  0  0  0
  2  8  1  0  0  0  0
  4  1  1  0  0  0  0
  6  2  1  0  0  0  0
  6  9  1  0  0  0  0
  6 10  1  0  0  0  0
  7  2  1  0  0  0  0
  9 12  1  0  0  0  0
 11  6  1  0  0  0  0
 13  9  1  0  0  0  0
 14  9  1  0  0  0  0
M  END
$$$$
