14
butane_opt
C  -3.949575   0.260864  -0.017443
C  -2.713048  -0.606885   0.093102
H  -4.864179  -0.363880  -0.089133
H  -3.921635   0.855653  -0.908106
H  -4.004038   0.931713   0.832821
C  -1.395894   0.195927   0.039516
H  -2.671305  -1.295467  -0.758878
H  -2.762845  -1.248235   1.014614
C  -0.154074  -0.709354  -0.001864
H  -1.356437   0.910322   0.916776
H  -1.435323   0.820372  -0.867347
H  -0.091707  -1.274066   0.844617
H   0.768233  -0.104285  -0.008283
H  -0.130655  -1.393892  -0.898917
