butane_opt
 OpenBabel08242015413D

 14 13  0  0  0  0  0  0  0  0999 V2000
   -3.9434    0.2615   -0.0275 C   0  0  0  0  0  0  0  0  0  0  0  0
   -2.7015   -0.5930    0.0870 C   0  0  0  0  0  0  0  0  0  0  0  0
   -4.9348   -0.3736   -0.1401 H   0  0  0  0  0  0  0  0  0  0  0  0
   -3.8185    0.8297   -0.9260 H   0  0  0  0  0  0  0  0  0  0  0  0
   -4.0052    0.9230    0.7877 H   0  0  0  0  0  0  0  0  0  0  0  0
   -1.3888    0.1814    0.0734 C   0  0  0  0  0  0  0  0  0  0  0  0
   -2.7320   -1.1989   -0.7150 H   0  0  0  0  0  0  0  0  0  0  0  0
   -2.7228   -1.3221    1.0107 H   0  0  0  0  0  0  0  0  0  0  0  0
   -0.1791   -0.7101   -0.0263 C   0  0  0  0  0  0  0  0  0  0  0  0
   -1.3541    0.9878    1.0154 H   0  0  0  0  0  0  0  0  0  0  0  0
   -1.4534    0.7840   -0.7916 H   0  0  0  0  0  0  0  0  0  0  0  0
    0.0166   -1.3942    0.9148 H   0  0  0  0  0  0  0  0  0  0  0  0
    0.7652   -0.1134   -0.1353 H   0  0  0  0  0  0  0  0  0  0  0  0
   -0.2355   -1.2783   -0.8499 H   0  0  0  0  0  0  0  0  0  0  0  0
  1  2  1  0  0  0  0
  1  5  1  0  0  0  0
  2  8  1  0  0  0  0
  3  1  1  0  0  0  0
  4  1  1  0  0  0  0
  6  2  1  0  0  0  0
  6 10  1  0  0  0  0
  7  2  1  0  0  0  0
  9  6  1  0  0  0  0
  9 12  1  0  0  0  0
 11  6  1  0  0  0  0
 13  9  1  0  0  0  0
 14  9  1  0  0  0  0
M  END
$$$$
