butane_opt
 OpenBabel08242015413D

 14 13  0  0  0  0  0  0  0  0999 V2000
   -3.9363    0.2651   -0.0183 C   0  0  0  0  0  0  0  0  0  0  0  0
   -2.7045   -0.6143    0.0872 C   0  0  0  0  0  0  0  0  0  0  0  0
   -4.8706   -0.3564   -0.0901 H   0  0  0  0  0  0  0  0  0  0  0  0
   -3.9046    0.8120   -0.8868 H   0  0  0  0  0  0  0  0  0  0  0  0
   -3.9517    0.9630    0.8543 H   0  0  0  0  0  0  0  0  0  0  0  0
   -1.4074    0.1930    0.0420 C   0  0  0  0  0  0  0  0  0  0  0  0
   -2.6738   -1.2367   -0.7300 H   0  0  0  0  0  0  0  0  0  0  0  0
   -2.7612   -1.2788    1.0071 H   0  0  0  0  0  0  0  0  0  0  0  0
   -0.1611   -0.6985   -0.0032 C   0  0  0  0  0  0  0  0  0  0  0  0
   -1.3729    0.8976    0.9127 H   0  0  0  0  0  0  0  0  0  0  0  0
   -1.3842    0.8200   -0.8837 H   0  0  0  0  0  0  0  0  0  0  0  0
   -0.1317   -1.2811    0.8566 H   0  0  0  0  0  0  0  0  0  0  0  0
    0.7148   -0.1574   -0.0083 H   0  0  0  0  0  0  0  0  0  0  0  0
   -0.1717   -1.4080   -0.8842 H   0  0  0  0  0  0  0  0  0  0  0  0
  1  2  1  0  0  0  0
  1  5  1  0  0  0  0
  2  8  1  0  0  0  0
  3  1  1  0  0  0  0
  4  1  1  0  0  0  0
  6  2  1  0  0  0  0
  6 10  1  0  0  0  0
  7  2  1  0  0  0  0
  9  6  1  0  0  0  0
  9 12  1  0  0  0  0
 11  6  1  0  0  0  0
 13  9  1  0  0  0  0
 14  9  1  0  0  0  0
M  END
$$$$
