butane_opt
 OpenBabel08242015413D

 14 13  0  0  0  0  0  0  0  0999 V2000
   -3.9757    0.2893   -0.0190 C   0  0  0  0  0  0  0  0  0  0  0  0
   -2.6958   -0.6349    0.0760 C   0  0  0  0  0  0  0  0  0  0  0  0
   -4.8605   -0.3085    0.0051 H   0  0  0  0  0  0  0  0  0  0  0  0
   -4.0133    0.9993   -1.0056 H   0  0  0  0  0  0  0  0  0  0  0  0
   -4.0123    0.8437    0.7665 H   0  0  0  0  0  0  0  0  0  0  0  0
   -1.3948    0.1522    0.0573 C   0  0  0  0  0  0  0  0  0  0  0  0
   -2.6619   -1.3261   -0.7929 H   0  0  0  0  0  0  0  0  0  0  0  0
   -2.6594   -1.2646    0.9777 H   0  0  0  0  0  0  0  0  0  0  0  0
   -0.1625   -0.6734   -0.0161 C   0  0  0  0  0  0  0  0  0  0  0  0
   -1.3480    0.9566    1.0614 H   0  0  0  0  0  0  0  0  0  0  0  0
   -1.3146    0.6514   -0.7343 H   0  0  0  0  0  0  0  0  0  0  0  0
   -0.0213   -1.3365    0.9228 H   0  0  0  0  0  0  0  0  0  0  0  0
    0.7971   -0.0546   -0.1629 H   0  0  0  0  0  0  0  0  0  0  0  0
   -0.1975   -1.2105   -0.7935 H   0  0  0  0  0  0  0  0  0  0  0  0
  1  3  1  0  0  0  0
  1  2  1  0  0  0  0
  1  5  1  0  0  0  0
  2  8  1  0  0  0  0
  4  1  1  0  0  0  0
  6  2  1  0  0  0  0
  6 10  1  0  0  0  0
  7  2  1  0  0  0  0
  9  6  1  0  0  0  0
  9 12  1  0  0  0  0
 11  6  1  0  0  0  0
 13  9  1  0  0  0  0
 14  9  1  0  0  0  0
M  END
$$$$
