14
butane_opt
C  -3.945101   0.248099  -0.015472
C  -2.726957  -0.597613   0.076883
H  -4.919110  -0.390738   0.197593
H  -4.030498   1.046063  -1.072053
H  -3.940545   0.744461   0.714295
C  -1.387757   0.211870   0.047200
H  -2.756413  -1.316056  -0.776152
H  -2.776012  -1.162978   0.943048
C  -0.130025  -0.726814  -0.003954
H  -1.327444   0.967074   0.966065
H  -1.515201   0.865754  -0.846202
H  -0.099958  -1.243202   0.860621
H   0.771969  -0.105991   0.148092
H  -0.136571  -1.520090  -0.969058
