14
butane_opt
C  -3.945681   0.256362  -0.028920
C  -2.687394  -0.604041   0.089865
H  -4.865428  -0.321044  -0.055418
H  -3.962245   0.927811  -0.954610
H  -3.960138   0.957361   0.839236
C  -1.404939   0.159137   0.048323
H  -2.555656  -1.170898  -0.623867
H  -2.729555  -1.338023   1.071135
C  -0.185368  -0.689097  -0.022353
H  -1.328788   0.881878   0.961451
H  -1.454056   0.796626  -0.837426
H  -0.183977  -1.156836   0.828000
H   0.818199  -0.032277   0.125146
H  -0.126469  -1.485461  -0.973127
