butane_opt
 OpenBabel08242015413D

 14 13  0  0  0  0  0  0  0  0999 V2000
   -3.9278    0.2733    0.0576 C   0  0  0  0  0  0  0  0  0  0  0  0
   -2.6748   -0.6335   -0.0140 C   0  0  0  0  0  0  0  0  0  0  0  0
   -4.8980   -0.3219    0.2074 H   0  0  0  0  0  0  0  0  0  0  0  0
   -4.1552    0.9691   -0.8770 H   0  0  0  0  0  0  0  0  0  0  0  0
   -3.8310    0.8703    0.9027 H   0  0  0  0  0  0  0  0  0  0  0  0
   -1.4128    0.1837   -0.0344 C   0  0  0  0  0  0  0  0  0  0  0  0
   -2.6807   -1.3314   -0.8444 H   0  0  0  0  0  0  0  0  0  0  0  0
   -2.6163   -1.2171    0.8575 H   0  0  0  0  0  0  0  0  0  0  0  0
   -0.1935   -0.6898    0.0602 C   0  0  0  0  0  0  0  0  0  0  0  0
   -1.3730    0.8673    0.8059 H   0  0  0  0  0  0  0  0  0  0  0  0
   -1.3190    0.7830   -0.8892 H   0  0  0  0  0  0  0  0  0  0  0  0
   -0.3201   -1.2894    1.0010 H   0  0  0  0  0  0  0  0  0  0  0  0
    0.7475   -0.0554    0.1895 H   0  0  0  0  0  0  0  0  0  0  0  0
   -0.0589   -1.3555   -0.7655 H   0  0  0  0  0  0  0  0  0  0  0  0
  1  3  1  0  0  0  0
  1  5  1  0  0  0  0
  2  1  1  0  0  0  0
  2  8  1  0  0  0  0
  4  1  1  0  0  0  0
  6  2  1  0  0  0  0
  6  9  1  0  0  0  0
  6 10  1  0  0  0  0
  7  2  1  0  0  0  0
  9 13  1  0  0  0  0
  9 12  1  0  0  0  0
 11  6  1  0  0  0  0
 14  9  1  0  0  0  0
M  END
$$$$
