14
butane_opt
C  -3.931351   0.255656   0.034966
C  -2.692943  -0.591853   0.031908
H  -4.932840  -0.402846  -0.114767
H  -3.876930   0.676634  -0.763333
H  -3.894038   1.019045   0.988405
C  -1.408938   0.195919  -0.039964
H  -2.814856  -1.181895  -0.795335
H  -2.663529  -1.242955   0.960641
C  -0.178670  -0.720876   0.056397
H  -1.417594   0.903657   0.862852
H  -1.398162   0.875756  -0.930592
H  -0.138249  -1.310849   0.931271
H   0.767872  -0.124801   0.070038
H  -0.106316  -1.367416  -0.766111
