14
butane_opt
C  -3.976049   0.277312   0.075898
C  -2.692991  -0.653825  -0.036228
H  -4.819502  -0.268817   0.264761
H  -4.074321   0.991291  -0.839064
H  -3.965127   0.925827   0.926789
C  -1.385030   0.180127  -0.031835
H  -2.670147  -1.480605  -0.988199
H  -2.671903  -1.157268   0.774222
C  -0.162273  -0.686178   0.080967
H  -1.382046   0.813690   0.781820
H  -1.330361   0.912022  -0.933425
H  -0.185392  -1.351266   1.021973
H   0.721661  -0.073513   0.043057
H  -0.050066  -1.186311  -0.662414
