14
butane_opt
C  -3.920232   0.253762   0.062644
C  -2.703756  -0.602964   0.034230
H  -4.851322  -0.335239  -0.189417
H  -3.802402   0.602891  -0.705343
H  -3.988747   1.077907   1.047383
C  -1.414847   0.214852  -0.060324
H  -2.852981  -1.326144  -0.895728
H  -2.701869  -1.145946   0.835896
C  -0.160605  -0.713300   0.081524
H  -1.500097   0.822322   0.709554
H  -1.340363   0.922625  -0.998409
H  -0.204033  -1.398988   0.999616
H   0.730537  -0.192392  -0.009420
H  -0.112301  -1.339736  -0.753302
