14
butane_opt
C  -3.949068   0.253793  -0.002249
C  -2.705817  -0.608039   0.063863
H  -4.866556  -0.346359   0.062953
H  -3.952749   0.958002  -0.957378
H  -3.955578   0.864000   0.831073
C  -1.400656   0.205359   0.028116
H  -2.748405  -1.256680  -0.755563
H  -2.780174  -1.235259   0.959868
C  -0.145353  -0.709906   0.009443
H  -1.342135   0.850428   0.889128
H  -1.468325   0.821333  -0.847122
H  -0.148818  -1.241917   0.828431
H   0.770246  -0.114477   0.131943
H  -0.116057  -1.463570  -0.902747
