butane_opt
 OpenBabel08242015413D

 14 13  0  0  0  0  0  0  0  0999 V2000
   -3.9648    0.2487    0.0163 C   0  0  0  0  0  0  0  0  0  0  0  0
   -2.7118   -0.5959    0.0446 C   0  0  0  0  0  0  0  0  0  0  0  0
   -4.8749   -0.3588    0.0220 H   0  0  0  0  0  0  0  0  0  0  0  0
   -3.9517    0.9026   -0.9476 H   0  0  0  0  0  0  0  0  0  0  0  0
   -3.8693    0.8115    0.8348 H   0  0  0  0  0  0  0  0  0  0  0  0
   -1.3975    0.2111    0.0083 C   0  0  0  0  0  0  0  0  0  0  0  0
   -2.7721   -1.1479   -0.7037 H   0  0  0  0  0  0  0  0  0  0  0  0
   -2.7379   -1.2809    1.0064 H   0  0  0  0  0  0  0  0  0  0  0  0
   -0.1420   -0.7244    0.0317 C   0  0  0  0  0  0  0  0  0  0  0  0
   -1.3610    0.9159    0.8443 H   0  0  0  0  0  0  0  0  0  0  0  0
   -1.3998    0.8474   -0.8698 H   0  0  0  0  0  0  0  0  0  0  0  0
   -0.1461   -1.1521    0.7910 H   0  0  0  0  0  0  0  0  0  0  0  0
    0.7534   -0.1576    0.1857 H   0  0  0  0  0  0  0  0  0  0  0  0
   -0.0635   -1.5408   -0.9664 H   0  0  0  0  0  0  0  0  0  0  0  0
  1  3  1  0  0  0  0
  1  2  1  0  0  0  0
  1  5  1  0  0  0  0
  2  8  1  0  0  0  0
  4  1  1  0  0  0  0
  6  9  1  0  0  0  0
  6  2  1  0  0  0  0
  6 10  1  0  0  0  0
  7  2  1  0  0  0  0
  9 13  1  0  0  0  0
  9 12  1  0  0  0  0
 11  6  1  0  0  0  0
 14  9  1  0  0  0  0
M  END
$$$$
