14
butane_opt
C  -3.957647   0.281903  -0.010956
C  -2.690095  -0.650312   0.049668
H  -4.824374  -0.239373  -0.015443
H  -4.067822   0.883304  -0.896596
H  -4.081823   0.983061   0.811838
C  -1.400192   0.186427   0.056369
H  -2.711646  -1.338971  -0.794471
H  -2.702188  -1.344017   1.030027
C  -0.149943  -0.685645   0.000734
H  -1.311632   0.902197   0.966988
H  -1.376076   0.717000  -0.788421
H  -0.139708  -1.362890   0.942624
H   0.785033  -0.036760  -0.210211
H  -0.214442  -1.208598  -0.756695
