butane_opt
 OpenBabel08242015413D

 14 13  0  0  0  0  0  0  0  0999 V2000
   -3.9408    0.2693    0.0060 C   0  0  0  0  0  0  0  0  0  0  0  0
   -2.6953   -0.6257    0.0408 C   0  0  0  0  0  0  0  0  0  0  0  0
   -4.8592   -0.3194    0.1561 H   0  0  0  0  0  0  0  0  0  0  0  0
   -3.9959    1.0071   -0.9738 H   0  0  0  0  0  0  0  0  0  0  0  0
   -3.9112    0.8370    0.7621 H   0  0  0  0  0  0  0  0  0  0  0  0
   -1.4129    0.1806    0.0344 C   0  0  0  0  0  0  0  0  0  0  0  0
   -2.6720   -1.2933   -0.7900 H   0  0  0  0  0  0  0  0  0  0  0  0
   -2.6957   -1.2671    0.9443 H   0  0  0  0  0  0  0  0  0  0  0  0
   -0.1662   -0.6843    0.0120 C   0  0  0  0  0  0  0  0  0  0  0  0
   -1.2985    0.9135    0.9200 H   0  0  0  0  0  0  0  0  0  0  0  0
   -1.4263    0.7631   -0.8016 H   0  0  0  0  0  0  0  0  0  0  0  0
   -0.1748   -1.3050    0.9227 H   0  0  0  0  0  0  0  0  0  0  0  0
    0.7390   -0.0945    0.0526 H   0  0  0  0  0  0  0  0  0  0  0  0
   -0.1468   -1.3945   -0.8780 H   0  0  0  0  0  0  0  0  0  0  0  0
  1  2  1  0  0  0  0
  1  3  1  0  0  0  0
  1  5  1  0  0  0  0
  2  8  1  0  0  0  0
  4  1  1  0  0  0  0
  6  2  1  0  0  0  0
  6 10  1  0  0  0  0
  7  2  1  0  0  0  0
  9  6  1  0  0  0  0
  9 13  1  0  0  0  0
  9 12  1  0  0  0  0
 11  6  1  0  0  0  0
 14  9  1  0  0  0  0
M  END
$$$$
