butane_opt
 OpenBabel08242015413D

 14 13  0  0  0  0  0  0  0  0999 V2000
   -3.9819    0.2735   -0.0109 C   0  0  0  0  0  0  0  0  0  0  0  0
   -2.6912   -0.6457    0.0880 C   0  0  0  0  0  0  0  0  0  0  0  0
   -4.8029   -0.2451    0.0425 H   0  0  0  0  0  0  0  0  0  0  0  0
   -3.9327    1.0231   -0.9470 H   0  0  0  0  0  0  0  0  0  0  0  0
   -4.0660    0.8814    0.7900 H   0  0  0  0  0  0  0  0  0  0  0  0
   -1.3849    0.1787    0.0148 C   0  0  0  0  0  0  0  0  0  0  0  0
   -2.6274   -1.2919   -0.6961 H   0  0  0  0  0  0  0  0  0  0  0  0
   -2.6909   -1.3311    0.9981 H   0  0  0  0  0  0  0  0  0  0  0  0
   -0.1629   -0.6804   -0.0008 C   0  0  0  0  0  0  0  0  0  0  0  0
   -1.3177    0.9535    0.9173 H   0  0  0  0  0  0  0  0  0  0  0  0
   -1.3984    0.7029   -0.8219 H   0  0  0  0  0  0  0  0  0  0  0  0
   -0.1753   -1.1033    0.7715 H   0  0  0  0  0  0  0  0  0  0  0  0
    0.7671   -0.1065    0.1910 H   0  0  0  0  0  0  0  0  0  0  0  0
   -0.1338   -1.4557   -0.9127 H   0  0  0  0  0  0  0  0  0  0  0  0
  1  3  1  0  0  0  0
  1  2  1  0  0  0  0
  1  5  1  0  0  0  0
  2  8  1  0  0  0  0
  4  1  1  0  0  0  0
  6  2  1  0  0  0  0
  6 10  1  0  0  0  0
  7  2  1  0  0  0  0
  9  6  1  0  0  0  0
  9 13  1  0  0  0  0
  9 12  1  0  0  0  0
 11  6  1  0  0  0  0
 14  9  1  0  0  0  0
M  END
$$$$
