14
butane_opt
C  -3.981930   0.273456  -0.010895
C  -2.691224  -0.645742   0.087950
H  -4.802904  -0.245137   0.042456
H  -3.932701   1.023141  -0.946989
H  -4.066048   0.881362   0.790006
C  -1.384911   0.178712   0.014784
H  -2.627435  -1.291889  -0.696065
H  -2.690882  -1.331103   0.998119
C  -0.162857  -0.680385  -0.000824
H  -1.317739   0.953481   0.917252
H  -1.398387   0.702865  -0.821886
H  -0.175344  -1.103250   0.771470
H   0.767070  -0.106470   0.190966
H  -0.133822  -1.455697  -0.912687
