14
butane_opt
C  -3.930453   0.262857   0.031723
C  -2.672551  -0.615559   0.040217
H  -4.884041  -0.303453  -0.169977
H  -3.949375   0.722822  -0.740445
H  -4.010205   1.110928   1.046118
C  -1.404630   0.184699  -0.030505
H  -2.700001  -1.339227  -0.808634
H  -2.698791  -1.278715   0.936380
C  -0.184968  -0.681111   0.058498
H  -1.470700   0.772529   0.781432
H  -1.308194   0.845331  -0.935586
H  -0.143269  -1.345160   0.978582
H   0.686932  -0.129908  -0.012734
H  -0.224667  -1.343238  -0.824522
