14
butane_opt
C  -3.931657   0.245239   0.054781
C  -2.698303  -0.577830   0.025304
H  -4.907768  -0.408466  -0.199132
H  -3.819862   0.602743  -0.709021
H  -3.983652   1.091831   1.041859
C  -1.417519   0.199710  -0.063731
H  -2.719614  -1.274634  -0.819142
H  -2.600528  -1.260374   0.914985
C  -0.177708  -0.720288   0.068041
H  -1.415206   0.929866   0.854455
H  -1.431640   0.876273  -0.969718
H  -0.106953  -1.394519   1.008757
H   0.786520  -0.118594   0.029784
H  -0.116742  -1.285334  -0.695291
