14
butane_opt
C  -3.948524   0.255186  -0.010852
C  -2.704854  -0.603710   0.083562
H  -4.871123  -0.369288  -0.091095
H  -3.871998   0.826346  -0.908030
H  -4.035896   0.934639   0.863292
C  -1.408477   0.201244   0.027303
H  -2.717656  -1.234245  -0.748748
H  -2.690827  -1.284895   1.020067
C  -0.150044  -0.705135   0.006631
H  -1.348136   0.930193   0.902578
H  -1.445890   0.800555  -0.846642
H  -0.128719  -1.276104   0.888362
H   0.762645  -0.114529  -0.013716
H  -0.126089  -1.464754  -0.913661
