butane_opt
 OpenBabel08242015413D

 14 13  0  0  0  0  0  0  0  0999 V2000
   -3.9558    0.2887    0.0696 C   0  0  0  0  0  0  0  0  0  0  0  0
   -2.6689   -0.6283   -0.0037 C   0  0  0  0  0  0  0  0  0  0  0  0
   -4.9024   -0.3389    0.0106 H   0  0  0  0  0  0  0  0  0  0  0  0
   -4.0003    0.8729   -0.8184 H   0  0  0  0  0  0  0  0  0  0  0  0
   -3.8448    1.0272    1.0008 H   0  0  0  0  0  0  0  0  0  0  0  0
   -1.3879    0.1538   -0.0530 C   0  0  0  0  0  0  0  0  0  0  0  0
   -2.6786   -1.3197   -0.8340 H   0  0  0  0  0  0  0  0  0  0  0  0
   -2.7262   -1.3215    0.9334 H   0  0  0  0  0  0  0  0  0  0  0  0
   -0.1922   -0.6784    0.0768 C   0  0  0  0  0  0  0  0  0  0  0  0
   -1.4106    0.7832    0.7400 H   0  0  0  0  0  0  0  0  0  0  0  0
   -1.3389    0.8527   -0.9868 H   0  0  0  0  0  0  0  0  0  0  0  0
   -0.3376   -1.2149    0.9448 H   0  0  0  0  0  0  0  0  0  0  0  0
    0.7635   -0.0362    0.2359 H   0  0  0  0  0  0  0  0  0  0  0  0
   -0.0970   -1.4023   -0.8664 H   0  0  0  0  0  0  0  0  0  0  0  0
  1  5  1  0  0  0  0
  2  1  1  0  0  0  0
  2  8  1  0  0  0  0
  3  1  1  0  0  0  0
  4  1  1  0  0  0  0
  6  2  1  0  0  0  0
  6  9  1  0  0  0  0
  6 10  1  0  0  0  0
  7  2  1  0  0  0  0
  9 13  1  0  0  0  0
  9 12  1  0  0  0  0
 11  6  1  0  0  0  0
 14  9  1  0  0  0  0
M  END
$$$$
