14
butane_opt
C  -3.960226   0.288216   0.070524
C  -2.708697  -0.626001   0.001305
H  -4.872301  -0.290074  -0.010592
H  -4.011132   0.733200  -0.732783
H  -3.993667   1.045250   1.000490
C  -1.393465   0.161683  -0.075701
H  -2.790164  -1.331117  -0.902643
H  -2.574790  -1.284820   0.879024
C  -0.151901  -0.672605   0.093150
H  -1.356274   0.790645   0.739226
H  -1.297626   0.805121  -0.951647
H  -0.277424  -1.260784   0.991227
H   0.762214  -0.122028   0.097907
H  -0.040138  -1.371633  -0.743857
