butane_opt
 OpenBabel08242015413D

 14 13  0  0  0  0  0  0  0  0999 V2000
   -3.9322    0.2589   -0.0427 C   0  0  0  0  0  0  0  0  0  0  0  0
   -2.7016   -0.6143    0.0907 C   0  0  0  0  0  0  0  0  0  0  0  0
   -4.8422   -0.3595    0.0497 H   0  0  0  0  0  0  0  0  0  0  0  0
   -3.9004    0.9425   -1.0059 H   0  0  0  0  0  0  0  0  0  0  0  0
   -3.9111    0.8625    0.8149 H   0  0  0  0  0  0  0  0  0  0  0  0
   -1.3976    0.2013    0.0898 C   0  0  0  0  0  0  0  0  0  0  0  0
   -2.5916   -1.2947   -0.7667 H   0  0  0  0  0  0  0  0  0  0  0  0
   -2.7479   -1.1871    0.9119 H   0  0  0  0  0  0  0  0  0  0  0  0
   -0.1914   -0.7079   -0.0185 C   0  0  0  0  0  0  0  0  0  0  0  0
   -1.3605    0.9364    0.9529 H   0  0  0  0  0  0  0  0  0  0  0  0
   -1.4036    0.8168   -0.7809 H   0  0  0  0  0  0  0  0  0  0  0  0
    0.0202   -1.4253    0.8757 H   0  0  0  0  0  0  0  0  0  0  0  0
    0.7270   -0.1019   -0.1737 H   0  0  0  0  0  0  0  0  0  0  0  0
   -0.3345   -1.3145   -0.8560 H   0  0  0  0  0  0  0  0  0  0  0  0
  1  3  1  0  0  0  0
  1  2  1  0  0  0  0
  1  5  1  0  0  0  0
  2  8  1  0  0  0  0
  4  1  1  0  0  0  0
  6  2  1  0  0  0  0
  6 10  1  0  0  0  0
  7  2  1  0  0  0  0
  9  6  1  0  0  0  0
  9 12  1  0  0  0  0
 11  6  1  0  0  0  0
 13  9  1  0  0  0  0
 14  9  1  0  0  0  0
M  END
$$$$
