14
butane_opt
C  -3.952588   0.233839  -0.024353
C  -2.701858  -0.605945   0.062569
H  -4.859645  -0.344937   0.218538
H  -4.036903   1.106398  -1.084404
H  -3.819464   0.728790   0.750418
C  -1.416831   0.224422   0.063600
H  -2.751756  -1.261083  -0.782175
H  -2.691752  -1.238653   0.963895
C  -0.149130  -0.720777  -0.002788
H  -1.329098   1.065781   0.982823
H  -1.393509   0.778864  -0.777970
H  -0.068753  -1.302962   0.876756
H   0.711953  -0.153006   0.004024
H  -0.125091  -1.442036  -0.935264
