14
butane_opt
C  -3.930332   0.277140  -0.011308
C  -2.695649  -0.636131   0.092003
H  -4.871732  -0.299999   0.066799
H  -3.953048   1.009190  -0.997389
H  -4.069211   0.898015   0.765533
C  -1.387905   0.189738   0.041859
H  -2.647424  -1.389801  -0.791540
H  -2.693016  -1.284687   1.002978
C  -0.187992  -0.687410  -0.008353
H  -1.356031   0.836968   0.887869
H  -1.369080   0.787353  -0.861101
H  -0.261320  -1.202835   0.794300
H   0.750332  -0.048636   0.132207
H  -0.122791  -1.492335  -0.949286
