butane_opt
 OpenBabel08242015413D

 14 13  0  0  0  0  0  0  0  0999 V2000
   -3.9394    0.2395    0.0559 C   0  0  0  0  0  0  0  0  0  0  0  0
   -2.6984   -0.5744   -0.0042 C   0  0  0  0  0  0  0  0  0  0  0  0
   -4.8919   -0.4082   -0.0185 H   0  0  0  0  0  0  0  0  0  0  0  0
   -3.9271    0.8133   -0.8106 H   0  0  0  0  0  0  0  0  0  0  0  0
   -3.9504    1.0118    0.9549 H   0  0  0  0  0  0  0  0  0  0  0  0
   -1.4085    0.1932   -0.0018 C   0  0  0  0  0  0  0  0  0  0  0  0
   -2.6669   -1.3644   -0.9553 H   0  0  0  0  0  0  0  0  0  0  0  0
   -2.6796   -1.1862    0.8822 H   0  0  0  0  0  0  0  0  0  0  0  0
   -0.1774   -0.7083    0.0534 C   0  0  0  0  0  0  0  0  0  0  0  0
   -1.3847    0.8560    0.7929 H   0  0  0  0  0  0  0  0  0  0  0  0
   -1.4115    0.8367   -0.9261 H   0  0  0  0  0  0  0  0  0  0  0  0
   -0.0328   -1.5409    1.0822 H   0  0  0  0  0  0  0  0  0  0  0  0
    0.7601   -0.0944   -0.1061 H   0  0  0  0  0  0  0  0  0  0  0  0
   -0.1439   -1.1951   -0.6543 H   0  0  0  0  0  0  0  0  0  0  0  0
  1  5  1  0  0  0  0
  2  6  1  0  0  0  0
  2  1  1  0  0  0  0
  2  8  1  0  0  0  0
  3  1  1  0  0  0  0
  4  1  1  0  0  0  0
  6  9  1  0  0  0  0
  6 10  1  0  0  0  0
  7  2  1  0  0  0  0
  9 12  1  0  0  0  0
 11  6  1  0  0  0  0
 13  9  1  0  0  0  0
 14  9  1  0  0  0  0
M  END
$$$$
