14
butane_opt
C  -3.945528   0.243811  -0.002578
C  -2.720012  -0.589106   0.039110
H  -4.911151  -0.400643   0.151086
H  -3.980529   1.055291  -1.041841
H  -3.871534   0.749941   0.753648
C  -1.412835   0.202308   0.066421
H  -2.697380  -1.231674  -0.795107
H  -2.707327  -1.220887   0.957956
C  -0.142829  -0.707781   0.016606
H  -1.422851   0.834013   0.907734
H  -1.429444   0.807476  -0.797887
H   0.025788  -1.281735   0.791154
H   0.758368  -0.120996  -0.056427
H  -0.130747  -1.448849  -0.895213
