butane_opt
 OpenBabel08242015413D

 14 13  0  0  0  0  0  0  0  0999 V2000
   -3.9516    0.2511    0.0597 C   0  0  0  0  0  0  0  0  0  0  0  0
   -2.7439   -0.6000    0.0219 C   0  0  0  0  0  0  0  0  0  0  0  0
   -4.8712   -0.3395   -0.0492 H   0  0  0  0  0  0  0  0  0  0  0  0
   -3.9129    0.7507   -0.7967 H   0  0  0  0  0  0  0  0  0  0  0  0
   -3.8950    0.9743    0.9796 H   0  0  0  0  0  0  0  0  0  0  0  0
   -1.3993    0.2125   -0.0560 C   0  0  0  0  0  0  0  0  0  0  0  0
   -2.7687   -1.2753   -0.8089 H   0  0  0  0  0  0  0  0  0  0  0  0
   -2.6986   -1.1825    0.8481 H   0  0  0  0  0  0  0  0  0  0  0  0
   -0.1288   -0.7205    0.0858 C   0  0  0  0  0  0  0  0  0  0  0  0
   -1.4683    0.7947    0.7466 H   0  0  0  0  0  0  0  0  0  0  0  0
   -1.3497    0.9581   -1.0084 H   0  0  0  0  0  0  0  0  0  0  0  0
   -0.0856   -1.2303    0.8655 H   0  0  0  0  0  0  0  0  0  0  0  0
    0.7732   -0.1706    0.1628 H   0  0  0  0  0  0  0  0  0  0  0  0
   -0.0681   -1.4740   -0.8388 H   0  0  0  0  0  0  0  0  0  0  0  0
  1  5  1  0  0  0  0
  2  1  1  0  0  0  0
  2  8  1  0  0  0  0
  3  1  1  0  0  0  0
  4  1  1  0  0  0  0
  6  2  1  0  0  0  0
  6  9  1  0  0  0  0
  6 10  1  0  0  0  0
  7  2  1  0  0  0  0
  9 13  1  0  0  0  0
  9 12  1  0  0  0  0
 11  6  1  0  0  0  0
 14  9  1  0  0  0  0
M  END
$$$$
