14
butane_opt
C  -3.970305   0.288034   0.004057
C  -2.692612  -0.644170   0.045678
H  -4.900027  -0.288595   0.172095
H  -4.103507   1.113776  -1.015274
H  -3.928944   0.822436   0.771351
C  -1.375883   0.161633   0.045223
H  -2.677008  -1.354059  -0.844589
H  -2.844473  -1.242114   0.952746
C  -0.156031  -0.688752   0.012269
H  -1.346265   0.831239   0.919729
H  -1.384996   0.845976  -0.845187
H  -0.159140  -1.172979   0.851491
H   0.845897  -0.028948   0.055611
H  -0.190612  -1.390188  -0.886947
