butane_opt
 OpenBabel08242015413D

 14 13  0  0  0  0  0  0  0  0999 V2000
   -3.9602    0.2825    0.0636 C   0  0  0  0  0  0  0  0  0  0  0  0
   -2.6798   -0.6285   -0.0222 C   0  0  0  0  0  0  0  0  0  0  0  0
   -4.7968   -0.2516    0.1481 H   0  0  0  0  0  0  0  0  0  0  0  0
   -4.0803    0.8153   -0.7413 H   0  0  0  0  0  0  0  0  0  0  0  0
   -3.8630    0.9736    0.9776 H   0  0  0  0  0  0  0  0  0  0  0  0
   -1.3965    0.1507   -0.0563 C   0  0  0  0  0  0  0  0  0  0  0  0
   -2.7759   -1.2573   -0.8452 H   0  0  0  0  0  0  0  0  0  0  0  0
   -2.6606   -1.2423    0.9219 H   0  0  0  0  0  0  0  0  0  0  0  0
   -0.1694   -0.6774    0.0749 C   0  0  0  0  0  0  0  0  0  0  0  0
   -1.4322    0.7590    0.7354 H   0  0  0  0  0  0  0  0  0  0  0  0
   -1.3626    0.8118   -0.9734 H   0  0  0  0  0  0  0  0  0  0  0  0
   -0.3342   -1.2402    0.9609 H   0  0  0  0  0  0  0  0  0  0  0  0
    0.7936    0.0040    0.2963 H   0  0  0  0  0  0  0  0  0  0  0  0
   -0.0556   -1.3622   -0.7619 H   0  0  0  0  0  0  0  0  0  0  0  0
  1  3  1  0  0  0  0
  1  5  1  0  0  0  0
  2  1  1  0  0  0  0
  2  8  1  0  0  0  0
  4  1  1  0  0  0  0
  6  2  1  0  0  0  0
  6  9  1  0  0  0  0
  6 10  1  0  0  0  0
  7  2  1  0  0  0  0
  9 13  1  0  0  0  0
  9 12  1  0  0  0  0
 11  6  1  0  0  0  0
 14  9  1  0  0  0  0
M  END
$$$$
