14
butane_opt
C  -3.960188   0.282494   0.063628
C  -2.679823  -0.628494  -0.022194
H  -4.796804  -0.251562   0.148094
H  -4.080331   0.815252  -0.741347
H  -3.863045   0.973587   0.977601
C  -1.396542   0.150739  -0.056252
H  -2.775868  -1.257298  -0.845235
H  -2.660624  -1.242338   0.921864
C  -0.169449  -0.677380   0.074883
H  -1.432185   0.759037   0.735379
H  -1.362625   0.811850  -0.973404
H  -0.334193  -1.240160   0.960908
H   0.793559   0.003962   0.296283
H  -0.055584  -1.362170  -0.761888
