butane_opt
 OpenBabel08242015413D

 14 13  0  0  0  0  0  0  0  0999 V2000
   -3.9455    0.2438   -0.0026 C   0  0  0  0  0  0  0  0  0  0  0  0
   -2.7200   -0.5891    0.0391 C   0  0  0  0  0  0  0  0  0  0  0  0
   -4.9112   -0.4006    0.1511 H   0  0  0  0  0  0  0  0  0  0  0  0
   -3.9805    1.0553   -1.0418 H   0  0  0  0  0  0  0  0  0  0  0  0
   -3.8715    0.7499    0.7536 H   0  0  0  0  0  0  0  0  0  0  0  0
   -1.4128    0.2023    0.0664 C   0  0  0  0  0  0  0  0  0  0  0  0
   -2.6974   -1.2317   -0.7951 H   0  0  0  0  0  0  0  0  0  0  0  0
   -2.7073   -1.2209    0.9580 H   0  0  0  0  0  0  0  0  0  0  0  0
   -0.1428   -0.7078    0.0166 C   0  0  0  0  0  0  0  0  0  0  0  0
   -1.4229    0.8340    0.9077 H   0  0  0  0  0  0  0  0  0  0  0  0
   -1.4294    0.8075   -0.7979 H   0  0  0  0  0  0  0  0  0  0  0  0
    0.0258   -1.2817    0.7912 H   0  0  0  0  0  0  0  0  0  0  0  0
    0.7584   -0.1210   -0.0564 H   0  0  0  0  0  0  0  0  0  0  0  0
   -0.1307   -1.4488   -0.8952 H   0  0  0  0  0  0  0  0  0  0  0  0
  1  2  1  0  0  0  0
  1  3  1  0  0  0  0
  1  5  1  0  0  0  0
  2  6  1  0  0  0  0
  2  8  1  0  0  0  0
  4  1  1  0  0  0  0
  6 10  1  0  0  0  0
  7  2  1  0  0  0  0
  9  6  1  0  0  0  0
  9 12  1  0  0  0  0
 11  6  1  0  0  0  0
 13  9  1  0  0  0  0
 14  9  1  0  0  0  0
M  END
$$$$
