14
butane_opt
C  -3.958048   0.266085   0.008955
C  -2.700881  -0.626136   0.060346
H  -4.837450  -0.297690   0.026063
H  -3.917759   0.958026  -0.934019
H  -4.053784   0.928678   0.867161
C  -1.397911   0.182645   0.016716
H  -2.736352  -1.295456  -0.804027
H  -2.710834  -1.275687   0.961178
C  -0.154247  -0.692665   0.020451
H  -1.356401   0.856365   0.874024
H  -1.388115   0.830395  -0.885812
H  -0.163079  -1.208620   0.851798
H   0.802922  -0.092294   0.089311
H  -0.130476  -1.428347  -0.892051
