14
butane_opt
C  -3.944543   0.279751   0.025865
C  -2.694254  -0.634527   0.028337
H  -4.838355  -0.320827  -0.006819
H  -3.937213   0.804173  -0.810121
H  -3.999967   1.041863   0.963194
C  -1.404231   0.182629  -0.004753
H  -2.705022  -1.293347  -0.815584
H  -2.683881  -1.314626   0.936700
C  -0.167525  -0.681731   0.038890
H  -1.387414   0.825959   0.839609
H  -1.322540   0.804340  -0.916230
H  -0.191062  -1.341841   0.977715
H   0.725305  -0.090468   0.017874
H  -0.158767  -1.335584  -0.794402
