14
butane_opt
C  -3.922215   0.246203  -0.025796
C  -2.698282  -0.604534   0.089973
H  -4.866693  -0.345500   0.065481
H  -3.968292   0.892528  -0.992891
H  -3.912557   0.805050   0.753178
C  -1.433843   0.229783   0.047446
H  -2.693582  -1.195781  -0.642413
H  -2.800259  -1.328542   1.045120
C  -0.157414  -0.720428  -0.012924
H  -1.356246   0.888829   0.894509
H  -1.491503   0.840171  -0.825825
H  -0.169842  -1.118283   0.753769
H   0.758579  -0.099342   0.197488
H   0.014343  -1.627197  -1.025419
