butane_opt
 OpenBabel08242015413D

 14 13  0  0  0  0  0  0  0  0999 V2000
   -3.9746    0.2695    0.0437 C   0  0  0  0  0  0  0  0  0  0  0  0
   -2.7086   -0.6282    0.0148 C   0  0  0  0  0  0  0  0  0  0  0  0
   -4.8531   -0.2682   -0.0761 H   0  0  0  0  0  0  0  0  0  0  0  0
   -3.9789    0.7520   -0.7478 H   0  0  0  0  0  0  0  0  0  0  0  0
   -4.0497    1.1792    1.0682 H   0  0  0  0  0  0  0  0  0  0  0  0
   -1.3907    0.1713   -0.0424 C   0  0  0  0  0  0  0  0  0  0  0  0
   -2.7358   -1.3101   -0.8579 H   0  0  0  0  0  0  0  0  0  0  0  0
   -2.6514   -1.3437    0.9268 H   0  0  0  0  0  0  0  0  0  0  0  0
   -0.1374   -0.6846    0.0789 C   0  0  0  0  0  0  0  0  0  0  0  0
   -1.4017    0.8142    0.7703 H   0  0  0  0  0  0  0  0  0  0  0  0
   -1.3819    0.8438   -0.9567 H   0  0  0  0  0  0  0  0  0  0  0  0
   -0.1206   -1.3205    1.0079 H   0  0  0  0  0  0  0  0  0  0  0  0
    0.8453   -0.0335   -0.0018 H   0  0  0  0  0  0  0  0  0  0  0  0
   -0.1676   -1.3106   -0.8073 H   0  0  0  0  0  0  0  0  0  0  0  0
  1  5  1  0  0  0  0
  2  1  1  0  0  0  0
  2  8  1  0  0  0  0
  3  1  1  0  0  0  0
  4  1  1  0  0  0  0
  6  2  1  0  0  0  0
  6  9  1  0  0  0  0
  6 10  1  0  0  0  0
  7  2  1  0  0  0  0
  9 12  1  0  0  0  0
 11  6  1  0  0  0  0
 13  9  1  0  0  0  0
 14  9  1  0  0  0  0
M  END
$$$$
