butane_opt
 OpenBabel08242015413D

 14 13  0  0  0  0  0  0  0  0999 V2000
   -3.9718    0.2759    0.0002 C   0  0  0  0  0  0  0  0  0  0  0  0
   -2.6908   -0.6530    0.0910 C   0  0  0  0  0  0  0  0  0  0  0  0
   -4.7839   -0.2309   -0.2443 H   0  0  0  0  0  0  0  0  0  0  0  0
   -3.8842    0.8508   -0.8709 H   0  0  0  0  0  0  0  0  0  0  0  0
   -4.1312    1.0687    0.9094 H   0  0  0  0  0  0  0  0  0  0  0  0
   -1.3802    0.1662    0.0220 C   0  0  0  0  0  0  0  0  0  0  0  0
   -2.7232   -1.3190   -0.7688 H   0  0  0  0  0  0  0  0  0  0  0  0
   -2.6995   -1.2207    0.9672 H   0  0  0  0  0  0  0  0  0  0  0  0
   -0.1600   -0.6778    0.0113 C   0  0  0  0  0  0  0  0  0  0  0  0
   -1.3530    0.8566    0.8504 H   0  0  0  0  0  0  0  0  0  0  0  0
   -1.4381    0.8196   -0.8882 H   0  0  0  0  0  0  0  0  0  0  0  0
   -0.0973   -1.2416    0.9025 H   0  0  0  0  0  0  0  0  0  0  0  0
    0.7279   -0.0527   -0.0851 H   0  0  0  0  0  0  0  0  0  0  0  0
   -0.2154   -1.3376   -0.8244 H   0  0  0  0  0  0  0  0  0  0  0  0
  1  2  1  0  0  0  0
  1  5  1  0  0  0  0
  2  8  1  0  0  0  0
  3  1  1  0  0  0  0
  4  1  1  0  0  0  0
  6  2  1  0  0  0  0
  6 10  1  0  0  0  0
  7  2  1  0  0  0  0
  9  6  1  0  0  0  0
  9 12  1  0  0  0  0
 11  6  1  0  0  0  0
 13  9  1  0  0  0  0
 14  9  1  0  0  0  0
M  END
$$$$
