14
butane_opt
C  -3.974566   0.269485   0.043694
C  -2.708563  -0.628248   0.014760
H  -4.853132  -0.268180  -0.076127
H  -3.978910   0.752006  -0.747799
H  -4.049740   1.179191   1.068205
C  -1.390743   0.171316  -0.042389
H  -2.735832  -1.310058  -0.857863
H  -2.651428  -1.343710   0.926806
C  -0.137387  -0.684625   0.078947
H  -1.401655   0.814216   0.770304
H  -1.381901   0.843812  -0.956679
H  -0.120580  -1.320454   1.007894
H   0.845279  -0.033535  -0.001804
H  -0.167623  -1.310574  -0.807293
