14
butane_opt
C  -3.930429   0.240491   0.048910
C  -2.692259  -0.593591   0.007008
H  -4.859197  -0.322718  -0.198402
H  -3.891697   0.533269  -0.652923
H  -3.895607   1.158195   1.098266
C  -1.428075   0.221490  -0.035970
H  -2.730748  -1.234635  -0.870237
H  -2.653216  -1.318782   0.967608
C  -0.169510  -0.713553   0.068816
H  -1.412786   0.819677   0.767807
H  -1.368196   0.927649  -0.997350
H  -0.172467  -1.447094   1.055137
H   0.712806  -0.166507  -0.055651
H  -0.098580  -1.291319  -0.710183
