14
butane_opt
C  -3.935033   0.242063  -0.035195
C  -2.697719  -0.577640   0.063344
H  -4.883790  -0.388667   0.040753
H  -3.958596   0.831376  -0.892742
H  -3.867782   0.865502   0.826581
C  -1.414145   0.205363   0.074875
H  -2.631802  -1.276961  -0.813234
H  -2.730877  -1.253749   1.005464
C  -0.174388  -0.716341  -0.004216
H  -1.423719   0.939261   0.990257
H  -1.442808   0.816693  -0.771643
H  -0.007801  -1.430408   0.939731
H   0.783535  -0.135066  -0.274516
H  -0.198992  -1.277696  -0.797867
