14
butane_opt
C  -3.952995   0.283938   0.047672
C  -2.715730  -0.654383  -0.006954
H  -4.846693  -0.295530   0.293789
H  -4.102481   1.038718  -0.902212
H  -3.978035   0.873128   0.839324
C  -1.390366   0.176239  -0.012023
H  -2.678618  -1.344954  -0.880404
H  -2.677473  -1.213801   0.810105
C  -0.160500  -0.674596   0.071842
H  -1.392897   0.842090   0.804654
H  -1.240471   0.836129  -0.923457
H  -0.089885  -1.238283   0.934269
H   0.750912  -0.113652   0.063500
H  -0.134413  -1.429369  -0.816370
