14
butane_opt
C  -3.927105   0.261576  -0.042586
C  -2.698090  -0.610667   0.100211
H  -4.822769  -0.315744  -0.074345
H  -3.889595   0.855678  -0.884528
H  -3.992482   0.899691   0.777240
C  -1.394287   0.199262   0.081241
H  -2.692670  -1.235440  -0.707319
H  -2.764909  -1.315696   1.009058
C  -0.189915  -0.709862  -0.023492
H  -1.392214   0.866587   0.922797
H  -1.463347   0.848273  -0.812523
H  -0.098383  -1.247156   0.824668
H   0.764025  -0.090227  -0.097796
H  -0.167093  -1.417573  -0.914747
