butane_opt
 OpenBabel08242015413D

 14 13  0  0  0  0  0  0  0  0999 V2000
   -3.9271    0.2616   -0.0426 C   0  0  0  0  0  0  0  0  0  0  0  0
   -2.6981   -0.6107    0.1002 C   0  0  0  0  0  0  0  0  0  0  0  0
   -4.8228   -0.3157   -0.0743 H   0  0  0  0  0  0  0  0  0  0  0  0
   -3.8896    0.8557   -0.8845 H   0  0  0  0  0  0  0  0  0  0  0  0
   -3.9925    0.8997    0.7772 H   0  0  0  0  0  0  0  0  0  0  0  0
   -1.3943    0.1993    0.0812 C   0  0  0  0  0  0  0  0  0  0  0  0
   -2.6927   -1.2354   -0.7073 H   0  0  0  0  0  0  0  0  0  0  0  0
   -2.7649   -1.3157    1.0091 H   0  0  0  0  0  0  0  0  0  0  0  0
   -0.1899   -0.7099   -0.0235 C   0  0  0  0  0  0  0  0  0  0  0  0
   -1.3922    0.8666    0.9228 H   0  0  0  0  0  0  0  0  0  0  0  0
   -1.4633    0.8483   -0.8125 H   0  0  0  0  0  0  0  0  0  0  0  0
   -0.0984   -1.2472    0.8247 H   0  0  0  0  0  0  0  0  0  0  0  0
    0.7640   -0.0902   -0.0978 H   0  0  0  0  0  0  0  0  0  0  0  0
   -0.1671   -1.4176   -0.9147 H   0  0  0  0  0  0  0  0  0  0  0  0
  1  2  1  0  0  0  0
  1  5  1  0  0  0  0
  2  8  1  0  0  0  0
  3  1  1  0  0  0  0
  4  1  1  0  0  0  0
  6  2  1  0  0  0  0
  6 10  1  0  0  0  0
  7  2  1  0  0  0  0
  9  6  1  0  0  0  0
  9 12  1  0  0  0  0
 11  6  1  0  0  0  0
 13  9  1  0  0  0  0
 14  9  1  0  0  0  0
M  END
$$$$
