14
butane_opt
C  -3.940295   0.271490   0.054988
C  -2.677267  -0.647519  -0.006645
H  -4.809629  -0.249186  -0.035745
H  -4.041549   0.778781  -0.781925
H  -4.034039   1.115316   1.004440
C  -1.393651   0.162208   0.002105
H  -2.664095  -1.360999  -0.925181
H  -2.711182  -1.123269   0.797006
C  -0.177747  -0.665421   0.064278
H  -1.476071   0.747035   0.794682
H  -1.361040   0.902565  -0.956580
H  -0.168572  -1.504353   1.122801
H   0.734765  -0.102616  -0.241617
H  -0.221936  -1.125543  -0.682376
