butane_opt
 OpenBabel08242015413D

 14 13  0  0  0  0  0  0  0  0999 V2000
   -3.9782    0.2699    0.0519 C   0  0  0  0  0  0  0  0  0  0  0  0
   -2.6990   -0.6210   -0.0065 C   0  0  0  0  0  0  0  0  0  0  0  0
   -4.8276   -0.2795    0.1888 H   0  0  0  0  0  0  0  0  0  0  0  0
   -4.1675    0.9583   -0.8656 H   0  0  0  0  0  0  0  0  0  0  0  0
   -3.8767    0.8996    0.8795 H   0  0  0  0  0  0  0  0  0  0  0  0
   -1.3855    0.1634   -0.0056 C   0  0  0  0  0  0  0  0  0  0  0  0
   -2.6733   -1.3788   -0.9182 H   0  0  0  0  0  0  0  0  0  0  0  0
   -2.6648   -1.2007    0.8124 H   0  0  0  0  0  0  0  0  0  0  0  0
   -0.1623   -0.6764    0.0666 C   0  0  0  0  0  0  0  0  0  0  0  0
   -1.4469    0.7911    0.7825 H   0  0  0  0  0  0  0  0  0  0  0  0
   -1.2688    0.8815   -0.9602 H   0  0  0  0  0  0  0  0  0  0  0  0
   -0.1509   -1.3372    0.9933 H   0  0  0  0  0  0  0  0  0  0  0  0
    0.8331   -0.0516    0.0452 H   0  0  0  0  0  0  0  0  0  0  0  0
   -0.0938   -1.3688   -0.8052 H   0  0  0  0  0  0  0  0  0  0  0  0
  1  3  1  0  0  0  0
  1  5  1  0  0  0  0
  2  6  1  0  0  0  0
  2  1  1  0  0  0  0
  2  8  1  0  0  0  0
  4  1  1  0  0  0  0
  6  9  1  0  0  0  0
  6 10  1  0  0  0  0
  7  2  1  0  0  0  0
  9 12  1  0  0  0  0
 11  6  1  0  0  0  0
 13  9  1  0  0  0  0
 14  9  1  0  0  0  0
M  END
$$$$
