14
butane_opt
C  -3.959392   0.263501  -0.014380
C  -2.700635  -0.636321   0.056990
H  -4.843758  -0.303017   0.024076
H  -4.011865   0.911041  -0.929002
H  -3.973924   0.999465   0.893053
C  -1.413305   0.190753   0.053829
H  -2.644216  -1.249300  -0.761828
H  -2.770123  -1.288595   0.986524
C  -0.147745  -0.689970   0.000425
H  -1.353716   0.831819   0.900702
H  -1.333725   0.800913  -0.799671
H  -0.063986  -1.342920   0.867249
H   0.713425  -0.070343  -0.065695
H  -0.089622  -1.293702  -0.835178
