butane_opt
 OpenBabel08242015413D

 14 13  0  0  0  0  0  0  0  0999 V2000
   -3.9492    0.2492   -0.0179 C   0  0  0  0  0  0  0  0  0  0  0  0
   -2.7230   -0.5892    0.0925 C   0  0  0  0  0  0  0  0  0  0  0  0
   -4.8463   -0.3521    0.0636 H   0  0  0  0  0  0  0  0  0  0  0  0
   -3.9716    1.0232   -1.0458 H   0  0  0  0  0  0  0  0  0  0  0  0
   -4.0224    0.7747    0.7628 H   0  0  0  0  0  0  0  0  0  0  0  0
   -1.4036    0.2005    0.0434 C   0  0  0  0  0  0  0  0  0  0  0  0
   -2.7508   -1.2051   -0.7610 H   0  0  0  0  0  0  0  0  0  0  0  0
   -2.7894   -1.3329    1.0950 H   0  0  0  0  0  0  0  0  0  0  0  0
   -0.1318   -0.7120   -0.0075 C   0  0  0  0  0  0  0  0  0  0  0  0
   -1.2951    0.9147    0.9094 H   0  0  0  0  0  0  0  0  0  0  0  0
   -1.4252    0.7735   -0.8294 H   0  0  0  0  0  0  0  0  0  0  0  0
   -0.2072   -1.1090    0.7396 H   0  0  0  0  0  0  0  0  0  0  0  0
    0.7957   -0.1172    0.1922 H   0  0  0  0  0  0  0  0  0  0  0  0
   -0.0075   -1.6270   -1.0532 H   0  0  0  0  0  0  0  0  0  0  0  0
  1  3  1  0  0  0  0
  1  2  1  0  0  0  0
  1  5  1  0  0  0  0
  2  8  1  0  0  0  0
  4  1  1  0  0  0  0
  6  2  1  0  0  0  0
  6 10  1  0  0  0  0
  7  2  1  0  0  0  0
  9  6  1  0  0  0  0
  9 13  1  0  0  0  0
  9 12  1  0  0  0  0
 11  6  1  0  0  0  0
 14  9  1  0  0  0  0
M  END
$$$$
