butane_opt
 OpenBabel08242015413D

 14 13  0  0  0  0  0  0  0  0999 V2000
   -3.9594    0.2635   -0.0144 C   0  0  0  0  0  0  0  0  0  0  0  0
   -2.7006   -0.6363    0.0570 C   0  0  0  0  0  0  0  0  0  0  0  0
   -4.8438   -0.3030    0.0241 H   0  0  0  0  0  0  0  0  0  0  0  0
   -4.0119    0.9110   -0.9290 H   0  0  0  0  0  0  0  0  0  0  0  0
   -3.9739    0.9995    0.8931 H   0  0  0  0  0  0  0  0  0  0  0  0
   -1.4133    0.1908    0.0538 C   0  0  0  0  0  0  0  0  0  0  0  0
   -2.6442   -1.2493   -0.7618 H   0  0  0  0  0  0  0  0  0  0  0  0
   -2.7701   -1.2886    0.9865 H   0  0  0  0  0  0  0  0  0  0  0  0
   -0.1477   -0.6900    0.0004 C   0  0  0  0  0  0  0  0  0  0  0  0
   -1.3537    0.8318    0.9007 H   0  0  0  0  0  0  0  0  0  0  0  0
   -1.3337    0.8009   -0.7997 H   0  0  0  0  0  0  0  0  0  0  0  0
   -0.0640   -1.3429    0.8672 H   0  0  0  0  0  0  0  0  0  0  0  0
    0.7134   -0.0703   -0.0657 H   0  0  0  0  0  0  0  0  0  0  0  0
   -0.0896   -1.2937   -0.8352 H   0  0  0  0  0  0  0  0  0  0  0  0
  1  3  1  0  0  0  0
  1  2  1  0  0  0  0
  1  5  1  0  0  0  0
  2  8  1  0  0  0  0
  4  1  1  0  0  0  0
  6  2  1  0  0  0  0
  6 10  1  0  0  0  0
  7  2  1  0  0  0  0
  9  6  1  0  0  0  0
  9 12  1  0  0  0  0
 11  6  1  0  0  0  0
 13  9  1  0  0  0  0
 14  9  1  0  0  0  0
M  END
$$$$
