14
butane_opt
C  -3.959364   0.277986  -0.019514
C  -2.680103  -0.624733   0.038391
H  -4.872466  -0.280022   0.263303
H  -4.038184   1.051577  -1.020607
H  -3.858053   0.779688   0.770634
C  -1.399587   0.153942   0.058399
H  -2.663433  -1.275784  -0.784703
H  -2.585263  -1.329404   0.981813
C  -0.180512  -0.675276   0.013556
H  -1.396168   0.959419   0.951892
H  -1.372742   0.710348  -0.772273
H  -0.149466  -1.242837   0.903515
H   0.782257   0.004933  -0.079534
H  -0.244732  -1.422381  -0.899518
