14
butane_opt
C  -3.951922   0.235535  -0.016341
C  -2.711352  -0.592028   0.091926
H  -4.817934  -0.328111  -0.213516
H  -3.901725   0.833571  -0.922453
H  -4.049488   1.026499   0.858156
C  -1.408669   0.216387   0.059049
H  -2.790125  -1.287950  -0.758617
H  -2.767332  -1.270264   1.035749
C  -0.138631  -0.717672  -0.015305
H  -1.309243   0.856571   0.912947
H  -1.423850   0.849146  -0.851262
H  -0.050219  -1.384660   0.922159
H   0.758072  -0.117324  -0.076082
H  -0.138340  -1.356069  -0.896251
