butane_opt
 OpenBabel08242015413D

 14 13  0  0  0  0  0  0  0  0999 V2000
   -3.9569    0.2629   -0.0155 C   0  0  0  0  0  0  0  0  0  0  0  0
   -2.7000   -0.6272    0.0972 C   0  0  0  0  0  0  0  0  0  0  0  0
   -4.8193   -0.2743   -0.1704 H   0  0  0  0  0  0  0  0  0  0  0  0
   -3.9870    0.7212   -0.8201 H   0  0  0  0  0  0  0  0  0  0  0  0
   -4.1358    1.0907    0.9076 H   0  0  0  0  0  0  0  0  0  0  0  0
   -1.4072    0.1921    0.0281 C   0  0  0  0  0  0  0  0  0  0  0  0
   -2.6218   -1.2833   -0.7115 H   0  0  0  0  0  0  0  0  0  0  0  0
   -2.8036   -1.2741    0.9785 H   0  0  0  0  0  0  0  0  0  0  0  0
   -0.1379   -0.6892    0.0120 C   0  0  0  0  0  0  0  0  0  0  0  0
   -1.3381    0.8151    0.8084 H   0  0  0  0  0  0  0  0  0  0  0  0
   -1.3739    0.8237   -0.9034 H   0  0  0  0  0  0  0  0  0  0  0  0
   -0.1187   -1.2527    0.8777 H   0  0  0  0  0  0  0  0  0  0  0  0
    0.7418   -0.0695   -0.0737 H   0  0  0  0  0  0  0  0  0  0  0  0
   -0.1372   -1.4370   -0.9025 H   0  0  0  0  0  0  0  0  0  0  0  0
  1  2  1  0  0  0  0
  1  5  1  0  0  0  0
  2  8  1  0  0  0  0
  3  1  1  0  0  0  0
  4  1  1  0  0  0  0
  6  2  1  0  0  0  0
  6 10  1  0  0  0  0
  7  2  1  0  0  0  0
  9  6  1  0  0  0  0
  9 12  1  0  0  0  0
 11  6  1  0  0  0  0
 13  9  1  0  0  0  0
 14  9  1  0  0  0  0
M  END
$$$$
