14
butane_opt
C  -3.947498   0.278525   0.052936
C  -2.697182  -0.625963   0.039211
H  -4.803778  -0.251343  -0.228184
H  -3.840479   0.631971  -0.688096
H  -4.020647   1.171489   1.030087
C  -1.409211   0.160849  -0.045736
H  -2.659108  -1.370531  -0.845015
H  -2.628858  -1.222156   0.839847
C  -0.169244  -0.677708   0.066689
H  -1.348094   0.761623   0.738134
H  -1.457769   0.839988  -0.994660
H  -0.267718  -1.381031   1.023651
H   0.795892   0.003964  -0.032811
H  -0.137656  -1.270147  -0.721686
