butane_opt
 OpenBabel08242015413D

 14 13  0  0  0  0  0  0  0  0999 V2000
   -3.9455    0.2504    0.0621 C   0  0  0  0  0  0  0  0  0  0  0  0
   -2.7089   -0.6004   -0.0030 C   0  0  0  0  0  0  0  0  0  0  0  0
   -4.8980   -0.3841   -0.1484 H   0  0  0  0  0  0  0  0  0  0  0  0
   -4.0103    0.7186   -0.7391 H   0  0  0  0  0  0  0  0  0  0  0  0
   -4.0208    1.0340    1.0386 H   0  0  0  0  0  0  0  0  0  0  0  0
   -1.4020    0.2006   -0.0426 C   0  0  0  0  0  0  0  0  0  0  0  0
   -2.7482   -1.2373   -0.7980 H   0  0  0  0  0  0  0  0  0  0  0  0
   -2.7433   -1.2837    0.9363 H   0  0  0  0  0  0  0  0  0  0  0  0
   -0.1314   -0.7103    0.0703 C   0  0  0  0  0  0  0  0  0  0  0  0
   -1.5258    0.8990    0.8145 H   0  0  0  0  0  0  0  0  0  0  0  0
   -1.3676    0.8992   -0.9447 H   0  0  0  0  0  0  0  0  0  0  0  0
   -0.1000   -1.3595    0.9850 H   0  0  0  0  0  0  0  0  0  0  0  0
    0.7495   -0.1685   -0.0083 H   0  0  0  0  0  0  0  0  0  0  0  0
   -0.0863   -1.2890   -0.7318 H   0  0  0  0  0  0  0  0  0  0  0  0
  1  5  1  0  0  0  0
  2  1  1  0  0  0  0
  2  8  1  0  0  0  0
  3  1  1  0  0  0  0
  4  1  1  0  0  0  0
  6  2  1  0  0  0  0
  6  9  1  0  0  0  0
  6 10  1  0  0  0  0
  7  2  1  0  0  0  0
  9 12  1  0  0  0  0
 11  6  1  0  0  0  0
 13  9  1  0  0  0  0
 14  9  1  0  0  0  0
M  END
$$$$
