14
butane_opt
C  -3.958236   0.237965   0.060620
C  -2.713944  -0.581245   0.004940
H  -4.910707  -0.376761  -0.084893
H  -4.001842   0.685222  -0.704949
H  -3.983507   1.006260   1.013955
C  -1.409549   0.203583  -0.046768
H  -2.822928  -1.313712  -0.888606
H  -2.613481  -1.100241   0.842221
C  -0.129851  -0.722248   0.076956
H  -1.367011   0.850749   0.756598
H  -1.353025   0.938238  -0.993032
H  -0.119991  -1.408384   1.057684
H   0.738889  -0.172522   0.009919
H  -0.026380  -1.267614  -0.705535
