butane_opt
 OpenBabel08242015413D

 14 13  0  0  0  0  0  0  0  0999 V2000
   -3.9195    0.2651    0.0590 C   0  0  0  0  0  0  0  0  0  0  0  0
   -2.7088   -0.6192   -0.0270 C   0  0  0  0  0  0  0  0  0  0  0  0
   -4.8875   -0.3762    0.3187 H   0  0  0  0  0  0  0  0  0  0  0  0
   -4.0093    0.9635   -0.8510 H   0  0  0  0  0  0  0  0  0  0  0  0
   -3.7716    0.8897    0.8667 H   0  0  0  0  0  0  0  0  0  0  0  0
   -1.4068    0.1910   -0.0373 C   0  0  0  0  0  0  0  0  0  0  0  0
   -2.7805   -1.3264   -0.8772 H   0  0  0  0  0  0  0  0  0  0  0  0
   -2.6385   -1.1665    0.8084 H   0  0  0  0  0  0  0  0  0  0  0  0
   -0.1841   -0.7031    0.0794 C   0  0  0  0  0  0  0  0  0  0  0  0
   -1.4992    0.8974    0.8357 H   0  0  0  0  0  0  0  0  0  0  0  0
   -1.3333    0.8377   -0.9380 H   0  0  0  0  0  0  0  0  0  0  0  0
   -0.1458   -1.3337    1.0239 H   0  0  0  0  0  0  0  0  0  0  0  0
    0.7519   -0.0790    0.1176 H   0  0  0  0  0  0  0  0  0  0  0  0
   -0.0923   -1.3869   -0.7643 H   0  0  0  0  0  0  0  0  0  0  0  0
  1  3  1  0  0  0  0
  1  5  1  0  0  0  0
  2  1  1  0  0  0  0
  2  8  1  0  0  0  0
  4  1  1  0  0  0  0
  6  2  1  0  0  0  0
  6  9  1  0  0  0  0
  6 10  1  0  0  0  0
  7  2  1  0  0  0  0
  9 13  1  0  0  0  0
  9 12  1  0  0  0  0
 11  6  1  0  0  0  0
 14  9  1  0  0  0  0
M  END
$$$$
