butane_opt
 OpenBabel08242015413D

 14 13  0  0  0  0  0  0  0  0999 V2000
   -3.9475    0.2785    0.0529 C   0  0  0  0  0  0  0  0  0  0  0  0
   -2.6972   -0.6260    0.0392 C   0  0  0  0  0  0  0  0  0  0  0  0
   -4.8038   -0.2513   -0.2282 H   0  0  0  0  0  0  0  0  0  0  0  0
   -3.8405    0.6320   -0.6881 H   0  0  0  0  0  0  0  0  0  0  0  0
   -4.0206    1.1715    1.0301 H   0  0  0  0  0  0  0  0  0  0  0  0
   -1.4092    0.1608   -0.0457 C   0  0  0  0  0  0  0  0  0  0  0  0
   -2.6591   -1.3705   -0.8450 H   0  0  0  0  0  0  0  0  0  0  0  0
   -2.6289   -1.2222    0.8398 H   0  0  0  0  0  0  0  0  0  0  0  0
   -0.1692   -0.6777    0.0667 C   0  0  0  0  0  0  0  0  0  0  0  0
   -1.3481    0.7616    0.7381 H   0  0  0  0  0  0  0  0  0  0  0  0
   -1.4578    0.8400   -0.9947 H   0  0  0  0  0  0  0  0  0  0  0  0
   -0.2677   -1.3810    1.0237 H   0  0  0  0  0  0  0  0  0  0  0  0
    0.7959    0.0040   -0.0328 H   0  0  0  0  0  0  0  0  0  0  0  0
   -0.1377   -1.2701   -0.7217 H   0  0  0  0  0  0  0  0  0  0  0  0
  1  5  1  0  0  0  0
  2  1  1  0  0  0  0
  2  8  1  0  0  0  0
  3  1  1  0  0  0  0
  4  1  1  0  0  0  0
  6  2  1  0  0  0  0
  6  9  1  0  0  0  0
  6 10  1  0  0  0  0
  7  2  1  0  0  0  0
  9 12  1  0  0  0  0
 11  6  1  0  0  0  0
 13  9  1  0  0  0  0
 14  9  1  0  0  0  0
M  END
$$$$
