butane_opt
 OpenBabel08242015413D

 14 13  0  0  0  0  0  0  0  0999 V2000
   -3.9659    0.2885   -0.0248 C   0  0  0  0  0  0  0  0  0  0  0  0
   -2.6947   -0.6400    0.0695 C   0  0  0  0  0  0  0  0  0  0  0  0
   -4.9082   -0.3276   -0.0473 H   0  0  0  0  0  0  0  0  0  0  0  0
   -3.9786    0.9121   -0.9449 H   0  0  0  0  0  0  0  0  0  0  0  0
   -4.0737    0.9566    0.8214 H   0  0  0  0  0  0  0  0  0  0  0  0
   -1.3836    0.1752    0.0702 C   0  0  0  0  0  0  0  0  0  0  0  0
   -2.7427   -1.2824   -0.7979 H   0  0  0  0  0  0  0  0  0  0  0  0
   -2.6837   -1.2736    0.9874 H   0  0  0  0  0  0  0  0  0  0  0  0
   -0.1560   -0.6892   -0.0151 C   0  0  0  0  0  0  0  0  0  0  0  0
   -1.2667    0.8994    0.9947 H   0  0  0  0  0  0  0  0  0  0  0  0
   -1.3667    0.7022   -0.7243 H   0  0  0  0  0  0  0  0  0  0  0  0
   -0.0411   -1.4715    0.9524 H   0  0  0  0  0  0  0  0  0  0  0  0
    0.7593   -0.0161   -0.1992 H   0  0  0  0  0  0  0  0  0  0  0  0
   -0.3110   -1.1839   -0.7864 H   0  0  0  0  0  0  0  0  0  0  0  0
  1  2  1  0  0  0  0
  1  5  1  0  0  0  0
  2  6  1  0  0  0  0
  2  8  1  0  0  0  0
  3  1  1  0  0  0  0
  4  1  1  0  0  0  0
  6 10  1  0  0  0  0
  7  2  1  0  0  0  0
  9  6  1  0  0  0  0
  9 12  1  0  0  0  0
 11  6  1  0  0  0  0
 13  9  1  0  0  0  0
 14  9  1  0  0  0  0
M  END
$$$$
