14
butane_opt
C  -3.975529   0.271727   0.063176
C  -2.687215  -0.634309   0.001401
H  -4.880680  -0.322701  -0.135538
H  -3.933522   0.716497  -0.712519
H  -4.129795   1.245490   1.087176
C  -1.383447   0.164970  -0.039087
H  -2.700305  -1.335364  -0.858157
H  -2.759037  -1.237281   0.906866
C  -0.145939  -0.679504   0.081606
H  -1.412799   0.782147   0.721166
H  -1.301109   0.918067  -1.024097
H  -0.137557  -1.395229   1.029210
H   0.743038  -0.092404  -0.051162
H  -0.194156  -1.239611  -0.763041
