butane_opt
 OpenBabel08242015413D

 14 13  0  0  0  0  0  0  0  0999 V2000
   -3.9320    0.2562    0.0550 C   0  0  0  0  0  0  0  0  0  0  0  0
   -2.6941   -0.5908    0.0014 C   0  0  0  0  0  0  0  0  0  0  0  0
   -4.8854   -0.4033   -0.0934 H   0  0  0  0  0  0  0  0  0  0  0  0
   -3.9343    0.5945   -0.6852 H   0  0  0  0  0  0  0  0  0  0  0  0
   -3.9239    1.0991    1.0907 H   0  0  0  0  0  0  0  0  0  0  0  0
   -1.4245    0.1927   -0.0526 C   0  0  0  0  0  0  0  0  0  0  0  0
   -2.7309   -1.2367   -0.8503 H   0  0  0  0  0  0  0  0  0  0  0  0
   -2.7504   -1.2513    0.9450 H   0  0  0  0  0  0  0  0  0  0  0  0
   -0.1546   -0.6930    0.0791 C   0  0  0  0  0  0  0  0  0  0  0  0
   -1.4065    0.8242    0.7432 H   0  0  0  0  0  0  0  0  0  0  0  0
   -1.4171    0.8517   -1.0113 H   0  0  0  0  0  0  0  0  0  0  0  0
   -0.1148   -1.4521    1.0482 H   0  0  0  0  0  0  0  0  0  0  0  0
    0.7043   -0.1492    0.0803 H   0  0  0  0  0  0  0  0  0  0  0  0
   -0.0996   -1.3418   -0.7788 H   0  0  0  0  0  0  0  0  0  0  0  0
  1  5  1  0  0  0  0
  2  1  1  0  0  0  0
  2  8  1  0  0  0  0
  3  1  1  0  0  0  0
  4  1  1  0  0  0  0
  6  2  1  0  0  0  0
  6  9  1  0  0  0  0
  6 10  1  0  0  0  0
  7  2  1  0  0  0  0
  9 13  1  0  0  0  0
  9 12  1  0  0  0  0
 11  6  1  0  0  0  0
 14  9  1  0  0  0  0
M  END
$$$$
