14
butane_opt
C  -3.919218   0.257261  -0.044480
C  -2.696664  -0.599017   0.071026
H  -4.891598  -0.375109  -0.026264
H  -3.907586   0.895798  -0.936700
H  -3.994362   0.828780   0.764016
C  -1.418606   0.194055   0.105295
H  -2.658683  -1.214308  -0.723884
H  -2.776135  -1.338536   1.052100
C  -0.171635  -0.691354  -0.024780
H  -1.345695   0.958064   1.032089
H  -1.497499   0.742077  -0.764714
H   0.056525  -1.408963   0.935315
H   0.685750  -0.159454  -0.296905
H  -0.224028  -1.334666  -0.881222
