14
butane_opt
C  -3.931990   0.256201   0.055003
C  -2.694135  -0.590837   0.001449
H  -4.885444  -0.403305  -0.093365
H  -3.934289   0.594479  -0.685242
H  -3.923909   1.099105   1.090667
C  -1.424493   0.192662  -0.052627
H  -2.730935  -1.236650  -0.850323
H  -2.750417  -1.251280   0.945029
C  -0.154600  -0.692952   0.079128
H  -1.406543   0.824155   0.743249
H  -1.417090   0.851713  -1.011335
H  -0.114845  -1.452130   1.048236
H   0.704256  -0.149191   0.080269
H  -0.099574  -1.341771  -0.778769
