14
butane_opt
C  -3.926966   0.284880  -0.027452
C  -2.688437  -0.641649   0.092936
H  -4.839863  -0.322232  -0.122925
H  -3.844838   0.793519  -0.844861
H  -4.105280   1.015687   0.854686
C  -1.389880   0.173127   0.043761
H  -2.619741  -1.124466  -0.636859
H  -2.737206  -1.384480   1.028620
C  -0.196683  -0.692606  -0.008466
H  -1.343225   0.886932   0.928323
H  -1.465666   0.796969  -0.851843
H  -0.167829  -1.186352   0.802401
H   0.731511  -0.043139   0.032514
H  -0.211427  -1.399701  -0.947610
