butane_opt
 OpenBabel08242015413D

 14 13  0  0  0  0  0  0  0  0999 V2000
   -3.9711    0.2888    0.0628 C   0  0  0  0  0  0  0  0  0  0  0  0
   -2.7160   -0.6386   -0.0001 C   0  0  0  0  0  0  0  0  0  0  0  0
   -4.8966   -0.3304    0.0759 H   0  0  0  0  0  0  0  0  0  0  0  0
   -4.0139    0.8378   -0.7546 H   0  0  0  0  0  0  0  0  0  0  0  0
   -3.9349    0.9893    0.9697 H   0  0  0  0  0  0  0  0  0  0  0  0
   -1.3776    0.1663   -0.0569 C   0  0  0  0  0  0  0  0  0  0  0  0
   -2.7799   -1.3272   -0.8518 H   0  0  0  0  0  0  0  0  0  0  0  0
   -2.6022   -1.2539    0.8869 H   0  0  0  0  0  0  0  0  0  0  0  0
   -0.1433   -0.6828    0.0648 C   0  0  0  0  0  0  0  0  0  0  0  0
   -1.3509    0.8494    0.8071 H   0  0  0  0  0  0  0  0  0  0  0  0
   -1.3821    0.8857   -1.0560 H   0  0  0  0  0  0  0  0  0  0  0  0
   -0.3010   -1.2700    1.0051 H   0  0  0  0  0  0  0  0  0  0  0  0
    0.7237   -0.1068    0.3333 H   0  0  0  0  0  0  0  0  0  0  0  0
    0.0037   -1.3634   -0.8146 H   0  0  0  0  0  0  0  0  0  0  0  0
  1  3  1  0  0  0  0
  1  5  1  0  0  0  0
  2  1  1  0  0  0  0
  2  8  1  0  0  0  0
  4  1  1  0  0  0  0
  6  2  1  0  0  0  0
  6  9  1  0  0  0  0
  6 10  1  0  0  0  0
  7  2  1  0  0  0  0
  9 13  1  0  0  0  0
  9 12  1  0  0  0  0
 11  6  1  0  0  0  0
 14  9  1  0  0  0  0
M  END
$$$$
