14
butane_opt
C  -3.929623   0.245151   0.053010
C  -2.712012  -0.613466   0.005042
H  -4.864164  -0.351201  -0.040320
H  -3.949446   0.711243  -0.722400
H  -4.069448   1.134840   1.034846
C  -1.415275   0.214172  -0.052497
H  -2.865165  -1.274193  -0.834611
H  -2.667185  -1.249375   0.943984
C  -0.131193  -0.698415   0.077451
H  -1.483421   0.812687   0.733351
H  -1.407738   0.878364  -0.969022
H  -0.109146  -1.352160   0.997531
H   0.712375  -0.148508   0.082699
H  -0.051710  -1.417553  -0.767698
