butane_opt
 OpenBabel08242015413D

 14 13  0  0  0  0  0  0  0  0999 V2000
   -3.9602    0.2858   -0.0486 C   0  0  0  0  0  0  0  0  0  0  0  0
   -2.7051   -0.6367    0.1262 C   0  0  0  0  0  0  0  0  0  0  0  0
   -4.8432   -0.2481   -0.2420 H   0  0  0  0  0  0  0  0  0  0  0  0
   -3.9288    0.7650   -0.8728 H   0  0  0  0  0  0  0  0  0  0  0  0
   -4.0724    1.0446    0.8439 H   0  0  0  0  0  0  0  0  0  0  0  0
   -1.3939    0.1504    0.0567 C   0  0  0  0  0  0  0  0  0  0  0  0
   -2.6502   -1.1840   -0.5901 H   0  0  0  0  0  0  0  0  0  0  0  0
   -2.8872   -1.3219    1.0921 H   0  0  0  0  0  0  0  0  0  0  0  0
   -0.1448   -0.6803   -0.0333 C   0  0  0  0  0  0  0  0  0  0  0  0
   -1.3130    0.9112    0.9441 H   0  0  0  0  0  0  0  0  0  0  0  0
   -1.4411    0.7706   -0.8021 H   0  0  0  0  0  0  0  0  0  0  0  0
   -0.0846   -1.2023    0.7898 H   0  0  0  0  0  0  0  0  0  0  0  0
    0.7984   -0.0321   -0.0378 H   0  0  0  0  0  0  0  0  0  0  0  0
   -0.1749   -1.4048   -0.8953 H   0  0  0  0  0  0  0  0  0  0  0  0
  1  2  1  0  0  0  0
  1  5  1  0  0  0  0
  2  8  1  0  0  0  0
  3  1  1  0  0  0  0
  4  1  1  0  0  0  0
  6  2  1  0  0  0  0
  6 10  1  0  0  0  0
  7  2  1  0  0  0  0
  9  6  1  0  0  0  0
  9 12  1  0  0  0  0
 11  6  1  0  0  0  0
 13  9  1  0  0  0  0
 14  9  1  0  0  0  0
M  END
$$$$
