14
butane_opt
C  -3.938599   0.270061   0.000937
C  -2.692679  -0.640236   0.062713
H  -4.829030  -0.302915   0.124943
H  -3.992637   1.026226  -1.003211
H  -4.067482   0.875023   0.779681
C  -1.411750   0.172393   0.032604
H  -2.752111  -1.224253  -0.772456
H  -2.739699  -1.317614   0.964610
C  -0.150851  -0.675534   0.019722
H  -1.356328   0.865974   0.898851
H  -1.421580   0.853971  -0.902510
H  -0.134793  -1.130151   0.787893
H   0.724994  -0.066973   0.143387
H  -0.131283  -1.578063  -0.994159
