14
butane_opt
C  -3.967161   0.285737  -0.007536
C  -2.706513  -0.630838   0.079799
H  -4.861320  -0.272565  -0.186762
H  -3.868352   0.748823  -0.811890
H  -4.180740   1.065573   0.935126
C  -1.392456   0.159894   0.008962
H  -2.682999  -1.287509  -0.714649
H  -2.628019  -1.344053   1.044723
C  -0.156402  -0.674278   0.011437
H  -1.343866   0.844738   0.894544
H  -1.373037   0.710769  -0.830129
H  -0.078621  -1.260810   0.903317
H   0.771171  -0.044907  -0.049889
H  -0.121236  -1.308181  -0.849527
