butane_opt
 OpenBabel08242015413D

 14 13  0  0  0  0  0  0  0  0999 V2000
   -3.9270    0.2849   -0.0275 C   0  0  0  0  0  0  0  0  0  0  0  0
   -2.6884   -0.6416    0.0929 C   0  0  0  0  0  0  0  0  0  0  0  0
   -4.8399   -0.3222   -0.1229 H   0  0  0  0  0  0  0  0  0  0  0  0
   -3.8448    0.7935   -0.8449 H   0  0  0  0  0  0  0  0  0  0  0  0
   -4.1053    1.0157    0.8547 H   0  0  0  0  0  0  0  0  0  0  0  0
   -1.3899    0.1731    0.0438 C   0  0  0  0  0  0  0  0  0  0  0  0
   -2.6197   -1.1245   -0.6369 H   0  0  0  0  0  0  0  0  0  0  0  0
   -2.7372   -1.3845    1.0286 H   0  0  0  0  0  0  0  0  0  0  0  0
   -0.1967   -0.6926   -0.0085 C   0  0  0  0  0  0  0  0  0  0  0  0
   -1.3432    0.8869    0.9283 H   0  0  0  0  0  0  0  0  0  0  0  0
   -1.4657    0.7970   -0.8518 H   0  0  0  0  0  0  0  0  0  0  0  0
   -0.1678   -1.1864    0.8024 H   0  0  0  0  0  0  0  0  0  0  0  0
    0.7315   -0.0431    0.0325 H   0  0  0  0  0  0  0  0  0  0  0  0
   -0.2114   -1.3997   -0.9476 H   0  0  0  0  0  0  0  0  0  0  0  0
  1  2  1  0  0  0  0
  1  5  1  0  0  0  0
  2  8  1  0  0  0  0
  3  1  1  0  0  0  0
  4  1  1  0  0  0  0
  6  2  1  0  0  0  0
  6 10  1  0  0  0  0
  7  2  1  0  0  0  0
  9 13  1  0  0  0  0
  9  6  1  0  0  0  0
  9 12  1  0  0  0  0
 11  6  1  0  0  0  0
 14  9  1  0  0  0  0
M  END
$$$$
