butane_opt
 OpenBabel08242015413D

 14 13  0  0  0  0  0  0  0  0999 V2000
   -3.9755    0.2717    0.0632 C   0  0  0  0  0  0  0  0  0  0  0  0
   -2.6872   -0.6343    0.0014 C   0  0  0  0  0  0  0  0  0  0  0  0
   -4.8807   -0.3227   -0.1355 H   0  0  0  0  0  0  0  0  0  0  0  0
   -3.9335    0.7165   -0.7125 H   0  0  0  0  0  0  0  0  0  0  0  0
   -4.1298    1.2455    1.0872 H   0  0  0  0  0  0  0  0  0  0  0  0
   -1.3834    0.1650   -0.0391 C   0  0  0  0  0  0  0  0  0  0  0  0
   -2.7003   -1.3354   -0.8582 H   0  0  0  0  0  0  0  0  0  0  0  0
   -2.7590   -1.2373    0.9069 H   0  0  0  0  0  0  0  0  0  0  0  0
   -0.1459   -0.6795    0.0816 C   0  0  0  0  0  0  0  0  0  0  0  0
   -1.4128    0.7821    0.7212 H   0  0  0  0  0  0  0  0  0  0  0  0
   -1.3011    0.9181   -1.0241 H   0  0  0  0  0  0  0  0  0  0  0  0
   -0.1376   -1.3952    1.0292 H   0  0  0  0  0  0  0  0  0  0  0  0
    0.7430   -0.0924   -0.0512 H   0  0  0  0  0  0  0  0  0  0  0  0
   -0.1942   -1.2396   -0.7630 H   0  0  0  0  0  0  0  0  0  0  0  0
  1  5  1  0  0  0  0
  2  1  1  0  0  0  0
  2  8  1  0  0  0  0
  3  1  1  0  0  0  0
  4  1  1  0  0  0  0
  6  2  1  0  0  0  0
  6  9  1  0  0  0  0
  6 10  1  0  0  0  0
  7  2  1  0  0  0  0
  9 12  1  0  0  0  0
 11  6  1  0  0  0  0
 13  9  1  0  0  0  0
 14  9  1  0  0  0  0
M  END
$$$$
