butane_opt
 OpenBabel08242015413D

 14 13  0  0  0  0  0  0  0  0999 V2000
   -3.9600    0.2755    0.0530 C   0  0  0  0  0  0  0  0  0  0  0  0
   -2.6879   -0.6207    0.0278 C   0  0  0  0  0  0  0  0  0  0  0  0
   -4.8113   -0.2770   -0.1970 H   0  0  0  0  0  0  0  0  0  0  0  0
   -3.9480    0.6217   -0.6803 H   0  0  0  0  0  0  0  0  0  0  0  0
   -4.0691    1.0987    1.0438 H   0  0  0  0  0  0  0  0  0  0  0  0
   -1.3933    0.1729   -0.0571 C   0  0  0  0  0  0  0  0  0  0  0  0
   -2.7313   -1.2532   -0.8211 H   0  0  0  0  0  0  0  0  0  0  0  0
   -2.7473   -1.2650    0.8940 H   0  0  0  0  0  0  0  0  0  0  0  0
   -0.1491   -0.6816    0.0753 C   0  0  0  0  0  0  0  0  0  0  0  0
   -1.4074    0.8444    0.7734 H   0  0  0  0  0  0  0  0  0  0  0  0
   -1.3743    0.7738   -0.9364 H   0  0  0  0  0  0  0  0  0  0  0  0
   -0.2463   -1.3828    1.0079 H   0  0  0  0  0  0  0  0  0  0  0  0
    0.7365   -0.0917   -0.0439 H   0  0  0  0  0  0  0  0  0  0  0  0
   -0.1417   -1.2967   -0.7638 H   0  0  0  0  0  0  0  0  0  0  0  0
  1  5  1  0  0  0  0
  2  1  1  0  0  0  0
  2  8  1  0  0  0  0
  3  1  1  0  0  0  0
  4  1  1  0  0  0  0
  6  2  1  0  0  0  0
  6  9  1  0  0  0  0
  6 10  1  0  0  0  0
  7  2  1  0  0  0  0
  9 12  1  0  0  0  0
 11  6  1  0  0  0  0
 13  9  1  0  0  0  0
 14  9  1  0  0  0  0
M  END
$$$$
