butane_opt
 OpenBabel08242015413D

 14 13  0  0  0  0  0  0  0  0999 V2000
   -3.9620    0.2667   -0.0179 C   0  0  0  0  0  0  0  0  0  0  0  0
   -2.6947   -0.6312    0.0759 C   0  0  0  0  0  0  0  0  0  0  0  0
   -4.7968   -0.2960   -0.0712 H   0  0  0  0  0  0  0  0  0  0  0  0
   -3.9726    1.0131   -0.9998 H   0  0  0  0  0  0  0  0  0  0  0  0
   -4.0983    0.8506    0.7757 H   0  0  0  0  0  0  0  0  0  0  0  0
   -1.3986    0.1799    0.0779 C   0  0  0  0  0  0  0  0  0  0  0  0
   -2.6663   -1.3005   -0.7928 H   0  0  0  0  0  0  0  0  0  0  0  0
   -2.6875   -1.2722    0.9990 H   0  0  0  0  0  0  0  0  0  0  0  0
   -0.1505   -0.6761   -0.0138 C   0  0  0  0  0  0  0  0  0  0  0  0
   -1.3039    0.9335    0.9718 H   0  0  0  0  0  0  0  0  0  0  0  0
   -1.4245    0.7551   -0.7868 H   0  0  0  0  0  0  0  0  0  0  0  0
   -0.0637   -1.3625    0.9350 H   0  0  0  0  0  0  0  0  0  0  0  0
    0.7551   -0.0952   -0.1913 H   0  0  0  0  0  0  0  0  0  0  0  0
   -0.2887   -1.3649   -0.8772 H   0  0  0  0  0  0  0  0  0  0  0  0
  1  2  1  0  0  0  0
  1  5  1  0  0  0  0
  2  6  1  0  0  0  0
  2  8  1  0  0  0  0
  3  1  1  0  0  0  0
  4  1  1  0  0  0  0
  6 10  1  0  0  0  0
  7  2  1  0  0  0  0
  9  6  1  0  0  0  0
  9 12  1  0  0  0  0
 11  6  1  0  0  0  0
 13  9  1  0  0  0  0
 14  9  1  0  0  0  0
M  END
$$$$
