14
butane_opt
C  -3.959142   0.240388   0.066538
C  -2.702073  -0.577675  -0.027957
H  -4.873751  -0.356718   0.069004
H  -4.031300   0.733938  -0.787016
H  -3.902020   0.935439   0.954703
C  -1.418858   0.212954  -0.001343
H  -2.705511  -1.395997  -0.986404
H  -2.740688  -1.160902   0.771591
C  -0.148646  -0.713795   0.079925
H  -1.418617   0.805210   0.785215
H  -1.283479   0.935180  -0.965155
H   0.008505  -1.549185   1.097723
H   0.751996  -0.156488  -0.245060
H  -0.081097  -1.195825  -0.634272
