14
butane_opt
C  -3.936369   0.244658  -0.032509
C  -2.717927  -0.603717   0.059192
H  -4.859557  -0.331421   0.213386
H  -4.050236   1.028083  -1.016148
H  -3.933615   0.742771   0.706973
C  -1.412890   0.212392   0.082117
H  -2.800744  -1.225823  -0.762312
H  -2.798393  -1.279363   0.994552
C  -0.132968  -0.714592  -0.020066
H  -1.325230   1.017416   1.049162
H  -1.436509   0.781800  -0.797809
H  -0.059709  -1.282130   0.899934
H   0.715635  -0.198930  -0.064799
H  -0.066352  -1.397716  -0.874580
