14
butane_opt
C  -3.946380   0.252580   0.079717
C  -2.705236  -0.589784  -0.013559
H  -4.855783  -0.354462   0.114717
H  -3.998014   0.797718  -0.782334
H  -3.868829   0.936915   0.975021
C  -1.398148   0.184836  -0.092346
H  -2.828997  -1.253405  -0.899515
H  -2.544703  -1.189811   0.881891
C  -0.168289  -0.704899   0.097051
H  -1.452712   0.853082   0.782180
H  -1.329045   0.814566  -0.949370
H  -0.303046  -1.248324   1.009462
H   0.726289  -0.109449   0.222864
H   0.054213  -1.445407  -0.789556
