14
butane_opt
C  -3.951925   0.251922  -0.042298
C  -2.727630  -0.597827   0.129159
H  -4.856963  -0.342347  -0.136272
H  -3.846463   0.800724  -0.891553
H  -4.081047   0.971204   0.810261
C  -1.407672   0.185075   0.056562
H  -2.650521  -1.255787  -0.688554
H  -2.773959  -1.194061   0.966272
C  -0.136059  -0.710065  -0.023846
H  -1.344942   0.864888   0.921245
H  -1.457512   0.853997  -0.832284
H   0.009998  -1.268597   0.793055
H   0.776137  -0.087283   0.003889
H  -0.125876  -1.371876  -0.926314
