butane_opt
 OpenBabel08242015413D

 14 13  0  0  0  0  0  0  0  0999 V2000
   -3.9591    0.2404    0.0665 C   0  0  0  0  0  0  0  0  0  0  0  0
   -2.7021   -0.5777   -0.0280 C   0  0  0  0  0  0  0  0  0  0  0  0
   -4.8738   -0.3567    0.0690 H   0  0  0  0  0  0  0  0  0  0  0  0
   -4.0313    0.7339   -0.7870 H   0  0  0  0  0  0  0  0  0  0  0  0
   -3.9020    0.9354    0.9547 H   0  0  0  0  0  0  0  0  0  0  0  0
   -1.4189    0.2130   -0.0013 C   0  0  0  0  0  0  0  0  0  0  0  0
   -2.7055   -1.3960   -0.9864 H   0  0  0  0  0  0  0  0  0  0  0  0
   -2.7407   -1.1609    0.7716 H   0  0  0  0  0  0  0  0  0  0  0  0
   -0.1486   -0.7138    0.0799 C   0  0  0  0  0  0  0  0  0  0  0  0
   -1.4186    0.8052    0.7852 H   0  0  0  0  0  0  0  0  0  0  0  0
   -1.2835    0.9352   -0.9652 H   0  0  0  0  0  0  0  0  0  0  0  0
    0.0085   -1.5492    1.0977 H   0  0  0  0  0  0  0  0  0  0  0  0
    0.7520   -0.1565   -0.2451 H   0  0  0  0  0  0  0  0  0  0  0  0
   -0.0811   -1.1958   -0.6343 H   0  0  0  0  0  0  0  0  0  0  0  0
  1  3  1  0  0  0  0
  1  5  1  0  0  0  0
  2  6  1  0  0  0  0
  2  1  1  0  0  0  0
  2  8  1  0  0  0  0
  4  1  1  0  0  0  0
  6  9  1  0  0  0  0
  6 10  1  0  0  0  0
  7  2  1  0  0  0  0
  9 12  1  0  0  0  0
 11  6  1  0  0  0  0
 13  9  1  0  0  0  0
 14  9  1  0  0  0  0
M  END
$$$$
