butane_opt
 OpenBabel08242015413D

 14 13  0  0  0  0  0  0  0  0999 V2000
   -3.9194    0.2621    0.0036 C   0  0  0  0  0  0  0  0  0  0  0  0
   -2.7119   -0.6097    0.0472 C   0  0  0  0  0  0  0  0  0  0  0  0
   -4.8771   -0.3551   -0.0357 H   0  0  0  0  0  0  0  0  0  0  0  0
   -3.8982    0.9113   -0.9114 H   0  0  0  0  0  0  0  0  0  0  0  0
   -3.9330    0.8982    0.8662 H   0  0  0  0  0  0  0  0  0  0  0  0
   -1.4098    0.1939    0.0315 C   0  0  0  0  0  0  0  0  0  0  0  0
   -2.6920   -1.3323   -0.7844 H   0  0  0  0  0  0  0  0  0  0  0  0
   -2.6623   -1.2459    0.9336 H   0  0  0  0  0  0  0  0  0  0  0  0
   -0.1827   -0.7055    0.0121 C   0  0  0  0  0  0  0  0  0  0  0  0
   -1.4093    1.0065    0.9840 H   0  0  0  0  0  0  0  0  0  0  0  0
   -1.3641    0.7230   -0.7853 H   0  0  0  0  0  0  0  0  0  0  0  0
   -0.0507   -1.4372    0.9483 H   0  0  0  0  0  0  0  0  0  0  0  0
    0.7209   -0.1268   -0.2046 H   0  0  0  0  0  0  0  0  0  0  0  0
   -0.1719   -1.1960   -0.7089 H   0  0  0  0  0  0  0  0  0  0  0  0
  1  2  1  0  0  0  0
  1  5  1  0  0  0  0
  2  8  1  0  0  0  0
  3  1  1  0  0  0  0
  4  1  1  0  0  0  0
  6  2  1  0  0  0  0
  6 10  1  0  0  0  0
  7  2  1  0  0  0  0
  9  6  1  0  0  0  0
  9 12  1  0  0  0  0
 11  6  1  0  0  0  0
 13  9  1  0  0  0  0
 14  9  1  0  0  0  0
M  END
$$$$
