14
butane_opt
C  -3.918500   0.240045  -0.033958
C  -2.719508  -0.587278   0.080159
H  -4.841076  -0.332357   0.174629
H  -3.904789   1.031545  -1.036883
H  -3.884745   0.743958   0.700023
C  -1.421011   0.199704   0.081469
H  -2.674414  -1.266314  -0.716186
H  -2.740589  -1.230573   0.992398
C  -0.162508  -0.709927  -0.013553
H  -1.411010   0.920458   0.974760
H  -1.360295   0.827310  -0.829753
H  -0.095091  -1.220363   0.753698
H   0.684017  -0.162133  -0.007777
H  -0.134459  -1.499699  -0.971161
