butane_opt
 OpenBabel08242015413D

 14 13  0  0  0  0  0  0  0  0999 V2000
   -3.9097    0.2547    0.0643 C   0  0  0  0  0  0  0  0  0  0  0  0
   -2.6942   -0.5980    0.0083 C   0  0  0  0  0  0  0  0  0  0  0  0
   -4.8728   -0.3892    0.0996 H   0  0  0  0  0  0  0  0  0  0  0  0
   -3.9844    0.8016   -0.8482 H   0  0  0  0  0  0  0  0  0  0  0  0
   -3.9194    0.9203    0.9470 H   0  0  0  0  0  0  0  0  0  0  0  0
   -1.4153    0.2100   -0.0525 C   0  0  0  0  0  0  0  0  0  0  0  0
   -2.7823   -1.3255   -0.8804 H   0  0  0  0  0  0  0  0  0  0  0  0
   -2.7455   -1.2410    0.9004 H   0  0  0  0  0  0  0  0  0  0  0  0
   -0.1659   -0.7175    0.0891 C   0  0  0  0  0  0  0  0  0  0  0  0
   -1.5212    0.8591    0.7071 H   0  0  0  0  0  0  0  0  0  0  0  0
   -1.3655    0.9309   -1.0202 H   0  0  0  0  0  0  0  0  0  0  0  0
   -0.2322   -1.1681    0.8897 H   0  0  0  0  0  0  0  0  0  0  0  0
    0.7283   -0.1320    0.1792 H   0  0  0  0  0  0  0  0  0  0  0  0
   -0.0890   -1.5312   -0.8577 H   0  0  0  0  0  0  0  0  0  0  0  0
  1  3  1  0  0  0  0
  1  5  1  0  0  0  0
  2  1  1  0  0  0  0
  2  8  1  0  0  0  0
  4  1  1  0  0  0  0
  6  2  1  0  0  0  0
  6  9  1  0  0  0  0
  6 10  1  0  0  0  0
  7  2  1  0  0  0  0
  9 13  1  0  0  0  0
  9 12  1  0  0  0  0
 11  6  1  0  0  0  0
 14  9  1  0  0  0  0
M  END
$$$$
