14
butane_opt
C  -3.926643   0.245886   0.073370
C  -2.705113  -0.611589  -0.021946
H  -4.886571  -0.360429   0.202271
H  -4.101148   0.896213  -0.820756
H  -3.874480   0.908461   0.892904
C  -1.412762   0.220604  -0.042107
H  -2.756883  -1.405285  -0.981735
H  -2.724091  -1.148625   0.806563
C  -0.145771  -0.715118   0.092829
H  -1.461589   0.897968   0.787295
H  -1.427686   0.861933  -0.989468
H  -0.180201  -1.334044   1.028766
H   0.723823  -0.187574   0.002271
H  -0.033144  -1.288922  -0.709890
