14
butane_opt
C  -3.909674   0.254704   0.064342
C  -2.694176  -0.597979   0.008311
H  -4.872809  -0.389172   0.099585
H  -3.984359   0.801630  -0.848163
H  -3.919427   0.920320   0.946976
C  -1.415289   0.209985  -0.052499
H  -2.782279  -1.325494  -0.880409
H  -2.745503  -1.240955   0.900399
C  -0.165941  -0.717533   0.089104
H  -1.521197   0.859084   0.707118
H  -1.365468   0.930879  -1.020245
H  -0.232169  -1.168080   0.889723
H   0.728254  -0.131999   0.179190
H  -0.088956  -1.531236  -0.857686
