14
butane_opt
C  -3.952283   0.273640   0.034210
C  -2.696319  -0.637595   0.017219
H  -4.819510  -0.261808   0.048040
H  -4.005885   0.828900  -0.807839
H  -3.979787   1.028184   0.924471
C  -1.398801   0.184725  -0.005835
H  -2.713903  -1.356664  -0.856732
H  -2.707010  -1.208252   0.849447
C  -0.166661  -0.690159   0.051294
H  -1.370377   0.854386   0.824213
H  -1.357260   0.786624  -0.900719
H  -0.154090  -1.415663   1.033793
H   0.802204  -0.043464  -0.082224
H  -0.159761  -1.238290  -0.733333
