14
butane_opt
C  -3.919436   0.262124   0.003614
C  -2.711850  -0.609687   0.047222
H  -4.877125  -0.355089  -0.035745
H  -3.898151   0.911255  -0.911443
H  -3.933005   0.898184   0.866211
C  -1.409761   0.193873   0.031520
H  -2.692032  -1.332304  -0.784419
H  -2.662277  -1.245879   0.933575
C  -0.182727  -0.705525   0.012059
H  -1.409330   1.006497   0.984031
H  -1.364095   0.723013  -0.785257
H  -0.050722  -1.437224   0.948298
H   0.720920  -0.126771  -0.204596
H  -0.171882  -1.195959  -0.708893
