butane_opt
 OpenBabel08242015413D

 14 13  0  0  0  0  0  0  0  0999 V2000
   -3.9470    0.2944   -0.0128 C   0  0  0  0  0  0  0  0  0  0  0  0
   -2.7128   -0.6584    0.0779 C   0  0  0  0  0  0  0  0  0  0  0  0
   -4.7938   -0.2571    0.1070 H   0  0  0  0  0  0  0  0  0  0  0  0
   -4.0484    1.0109   -1.0112 H   0  0  0  0  0  0  0  0  0  0  0  0
   -4.0164    0.8406    0.7666 H   0  0  0  0  0  0  0  0  0  0  0  0
   -1.3875    0.1778    0.0228 C   0  0  0  0  0  0  0  0  0  0  0  0
   -2.6813   -1.2176   -0.6737 H   0  0  0  0  0  0  0  0  0  0  0  0
   -2.7146   -1.3886    1.0385 H   0  0  0  0  0  0  0  0  0  0  0  0
   -0.1622   -0.6824    0.0078 C   0  0  0  0  0  0  0  0  0  0  0  0
   -1.3756    0.8891    0.9419 H   0  0  0  0  0  0  0  0  0  0  0  0
   -1.3532    0.7167   -0.8202 H   0  0  0  0  0  0  0  0  0  0  0  0
   -0.2314   -1.0158    0.7151 H   0  0  0  0  0  0  0  0  0  0  0  0
    0.7912   -0.0570    0.1813 H   0  0  0  0  0  0  0  0  0  0  0  0
   -0.0959   -1.5537   -1.0003 H   0  0  0  0  0  0  0  0  0  0  0  0
  1  2  1  0  0  0  0
  1  3  1  0  0  0  0
  1  5  1  0  0  0  0
  2  8  1  0  0  0  0
  4  1  1  0  0  0  0
  6  2  1  0  0  0  0
  6 10  1  0  0  0  0
  7  2  1  0  0  0  0
  9  6  1  0  0  0  0
  9 13  1  0  0  0  0
  9 12  1  0  0  0  0
 11  6  1  0  0  0  0
 14  9  1  0  0  0  0
M  END
$$$$
