14
butane_opt
C  -3.948508   0.257076   0.039416
C  -2.714692  -0.612689   0.014546
H  -4.887248  -0.421577  -0.037292
H  -3.987049   0.730051  -0.747116
H  -3.979176   1.027429   0.967776
C  -1.383126   0.224451  -0.017554
H  -2.787624  -1.240522  -0.858234
H  -2.703442  -1.239451   0.911949
C  -0.150957  -0.718882   0.049298
H  -1.375437   0.871549   0.815955
H  -1.417354   0.876126  -0.918450
H  -0.172130  -1.385923   1.015873
H   0.669009  -0.207581  -0.017261
H   0.007433  -1.304052  -0.709594
