butane_opt
 OpenBabel08242015413D

 14 13  0  0  0  0  0  0  0  0999 V2000
   -3.9266    0.2459    0.0734 C   0  0  0  0  0  0  0  0  0  0  0  0
   -2.7051   -0.6116   -0.0219 C   0  0  0  0  0  0  0  0  0  0  0  0
   -4.8866   -0.3604    0.2023 H   0  0  0  0  0  0  0  0  0  0  0  0
   -4.1011    0.8962   -0.8208 H   0  0  0  0  0  0  0  0  0  0  0  0
   -3.8745    0.9085    0.8929 H   0  0  0  0  0  0  0  0  0  0  0  0
   -1.4128    0.2206   -0.0421 C   0  0  0  0  0  0  0  0  0  0  0  0
   -2.7569   -1.4053   -0.9817 H   0  0  0  0  0  0  0  0  0  0  0  0
   -2.7241   -1.1486    0.8066 H   0  0  0  0  0  0  0  0  0  0  0  0
   -0.1458   -0.7151    0.0928 C   0  0  0  0  0  0  0  0  0  0  0  0
   -1.4616    0.8980    0.7873 H   0  0  0  0  0  0  0  0  0  0  0  0
   -1.4277    0.8619   -0.9895 H   0  0  0  0  0  0  0  0  0  0  0  0
   -0.1802   -1.3340    1.0288 H   0  0  0  0  0  0  0  0  0  0  0  0
    0.7238   -0.1876    0.0023 H   0  0  0  0  0  0  0  0  0  0  0  0
   -0.0331   -1.2889   -0.7099 H   0  0  0  0  0  0  0  0  0  0  0  0
  1  3  1  0  0  0  0
  1  5  1  0  0  0  0
  2  1  1  0  0  0  0
  2  8  1  0  0  0  0
  4  1  1  0  0  0  0
  6  2  1  0  0  0  0
  6  9  1  0  0  0  0
  6 10  1  0  0  0  0
  7  2  1  0  0  0  0
  9 12  1  0  0  0  0
 11  6  1  0  0  0  0
 13  9  1  0  0  0  0
 14  9  1  0  0  0  0
M  END
$$$$
