butane_opt
 OpenBabel08242015413D

 14 13  0  0  0  0  0  0  0  0999 V2000
   -3.9445    0.2848    0.0629 C   0  0  0  0  0  0  0  0  0  0  0  0
   -2.6875   -0.6443   -0.0107 C   0  0  0  0  0  0  0  0  0  0  0  0
   -4.7986   -0.2617    0.1651 H   0  0  0  0  0  0  0  0  0  0  0  0
   -4.0905    0.8174   -0.7596 H   0  0  0  0  0  0  0  0  0  0  0  0
   -3.8915    0.9814    0.9594 H   0  0  0  0  0  0  0  0  0  0  0  0
   -1.4114    0.1602   -0.0636 C   0  0  0  0  0  0  0  0  0  0  0  0
   -2.6481   -1.2581   -0.8704 H   0  0  0  0  0  0  0  0  0  0  0  0
   -2.6575   -1.2812    0.8867 H   0  0  0  0  0  0  0  0  0  0  0  0
   -0.1753   -0.6657    0.0878 C   0  0  0  0  0  0  0  0  0  0  0  0
   -1.3559    0.7560    0.7382 H   0  0  0  0  0  0  0  0  0  0  0  0
   -1.3493    0.8386   -0.9839 H   0  0  0  0  0  0  0  0  0  0  0  0
   -0.2694   -1.1708    0.9796 H   0  0  0  0  0  0  0  0  0  0  0  0
    0.7131   -0.0756    0.2687 H   0  0  0  0  0  0  0  0  0  0  0  0
   -0.0605   -1.4446   -0.8560 H   0  0  0  0  0  0  0  0  0  0  0  0
  1  3  1  0  0  0  0
  1  5  1  0  0  0  0
  2  1  1  0  0  0  0
  2  8  1  0  0  0  0
  4  1  1  0  0  0  0
  6  2  1  0  0  0  0
  6  9  1  0  0  0  0
  6 10  1  0  0  0  0
  7  2  1  0  0  0  0
  9 13  1  0  0  0  0
  9 12  1  0  0  0  0
 11  6  1  0  0  0  0
 14  9  1  0  0  0  0
M  END
$$$$
