butane_opt
 OpenBabel08242015413D

 14 13  0  0  0  0  0  0  0  0999 V2000
   -3.9348    0.2762   -0.0163 C   0  0  0  0  0  0  0  0  0  0  0  0
   -2.6845   -0.6379    0.0807 C   0  0  0  0  0  0  0  0  0  0  0  0
   -4.8069   -0.2678    0.0800 H   0  0  0  0  0  0  0  0  0  0  0  0
   -3.9840    1.0022   -0.9566 H   0  0  0  0  0  0  0  0  0  0  0  0
   -3.9814    0.8986    0.8280 H   0  0  0  0  0  0  0  0  0  0  0  0
   -1.4067    0.1632    0.0308 C   0  0  0  0  0  0  0  0  0  0  0  0
   -2.7283   -1.2953   -0.7813 H   0  0  0  0  0  0  0  0  0  0  0  0
   -2.6400   -1.3077    0.9818 H   0  0  0  0  0  0  0  0  0  0  0  0
   -0.1773   -0.6658    0.0114 C   0  0  0  0  0  0  0  0  0  0  0  0
   -1.4313    0.7809    0.8164 H   0  0  0  0  0  0  0  0  0  0  0  0
   -1.4090    0.7894   -0.8255 H   0  0  0  0  0  0  0  0  0  0  0  0
   -0.1331   -1.1192    0.8170 H   0  0  0  0  0  0  0  0  0  0  0  0
    0.7358   -0.0597    0.1704 H   0  0  0  0  0  0  0  0  0  0  0  0
   -0.2155   -1.5167   -0.9965 H   0  0  0  0  0  0  0  0  0  0  0  0
  1  3  1  0  0  0  0
  1  2  1  0  0  0  0
  1  5  1  0  0  0  0
  2  8  1  0  0  0  0
  4  1  1  0  0  0  0
  6  2  1  0  0  0  0
  6 10  1  0  0  0  0
  7  2  1  0  0  0  0
  9  6  1  0  0  0  0
  9 13  1  0  0  0  0
  9 12  1  0  0  0  0
 11  6  1  0  0  0  0
 14  9  1  0  0  0  0
M  END
$$$$
