butane_opt
 OpenBabel08242015413D

 14 13  0  0  0  0  0  0  0  0999 V2000
   -3.9456    0.2764    0.0510 C   0  0  0  0  0  0  0  0  0  0  0  0
   -2.6754   -0.6070   -0.0302 C   0  0  0  0  0  0  0  0  0  0  0  0
   -4.8922   -0.4113    0.1496 H   0  0  0  0  0  0  0  0  0  0  0  0
   -4.0464    0.8016   -0.7797 H   0  0  0  0  0  0  0  0  0  0  0  0
   -3.9460    1.0214    0.9667 H   0  0  0  0  0  0  0  0  0  0  0  0
   -1.3956    0.1651   -0.0207 C   0  0  0  0  0  0  0  0  0  0  0  0
   -2.7501   -1.3145   -0.8651 H   0  0  0  0  0  0  0  0  0  0  0  0
   -2.5861   -1.2511    0.8586 H   0  0  0  0  0  0  0  0  0  0  0  0
   -0.1830   -0.6828    0.0879 C   0  0  0  0  0  0  0  0  0  0  0  0
   -1.4622    0.8130    0.7762 H   0  0  0  0  0  0  0  0  0  0  0  0
   -1.3371    0.7567   -0.9050 H   0  0  0  0  0  0  0  0  0  0  0  0
   -0.1253   -1.4187    1.0332 H   0  0  0  0  0  0  0  0  0  0  0  0
    0.7520   -0.0668   -0.1020 H   0  0  0  0  0  0  0  0  0  0  0  0
   -0.2270   -1.2152   -0.7303 H   0  0  0  0  0  0  0  0  0  0  0  0
  1  3  1  0  0  0  0
  1  5  1  0  0  0  0
  2  6  1  0  0  0  0
  2  1  1  0  0  0  0
  2  8  1  0  0  0  0
  4  1  1  0  0  0  0
  6  9  1  0  0  0  0
  6 10  1  0  0  0  0
  7  2  1  0  0  0  0
  9 12  1  0  0  0  0
 11  6  1  0  0  0  0
 13  9  1  0  0  0  0
 14  9  1  0  0  0  0
M  END
$$$$
