butane_opt
 OpenBabel08242015413D

 14 13  0  0  0  0  0  0  0  0999 V2000
   -3.9635    0.2375    0.0747 C   0  0  0  0  0  0  0  0  0  0  0  0
   -2.7047   -0.5927   -0.0050 C   0  0  0  0  0  0  0  0  0  0  0  0
   -4.8570   -0.3748    0.0666 H   0  0  0  0  0  0  0  0  0  0  0  0
   -3.9900    0.7860   -0.7831 H   0  0  0  0  0  0  0  0  0  0  0  0
   -3.9153    0.9843    1.0218 H   0  0  0  0  0  0  0  0  0  0  0  0
   -1.4082    0.2109   -0.0683 C   0  0  0  0  0  0  0  0  0  0  0  0
   -2.9170   -1.2455   -0.9109 H   0  0  0  0  0  0  0  0  0  0  0  0
   -2.6635   -1.1448    0.8332 H   0  0  0  0  0  0  0  0  0  0  0  0
   -0.1286   -0.7169    0.0983 C   0  0  0  0  0  0  0  0  0  0  0  0
   -1.4923    0.7708    0.6901 H   0  0  0  0  0  0  0  0  0  0  0  0
   -1.3532    0.9749   -1.0448 H   0  0  0  0  0  0  0  0  0  0  0  0
   -0.2120   -1.2268    0.9860 H   0  0  0  0  0  0  0  0  0  0  0  0
    0.7952   -0.1427    0.1918 H   0  0  0  0  0  0  0  0  0  0  0  0
    0.0464   -1.5321   -0.8252 H   0  0  0  0  0  0  0  0  0  0  0  0
  1  5  1  0  0  0  0
  2  1  1  0  0  0  0
  2  8  1  0  0  0  0
  3  1  1  0  0  0  0
  4  1  1  0  0  0  0
  6  2  1  0  0  0  0
  6  9  1  0  0  0  0
  6 10  1  0  0  0  0
  7  2  1  0  0  0  0
  9 13  1  0  0  0  0
  9 12  1  0  0  0  0
 11  6  1  0  0  0  0
 14  9  1  0  0  0  0
M  END
$$$$
