14
butane_opt
C  -3.962007   0.250272  -0.028838
C  -2.700612  -0.620721   0.078663
H  -4.874627  -0.323692   0.159734
H  -3.984034   0.992976  -1.038254
H  -4.003992   0.828254   0.716218
C  -1.399044   0.217351   0.073576
H  -2.718591  -1.371064  -0.790889
H  -2.691054  -1.242826   0.963682
C  -0.152151  -0.714246  -0.008795
H  -1.324655   0.945618   0.962581
H  -1.447902   0.867642  -0.819666
H  -0.000359  -1.237507   0.826798
H   0.736753  -0.155845  -0.038966
H  -0.139829  -1.369338  -0.886178
