14
butane_opt
C  -3.943000   0.278013   0.050073
C  -2.681393  -0.632622   0.005979
H  -4.762807  -0.268596  -0.127946
H  -3.965636   0.726081  -0.744909
H  -3.947247   1.063945   1.002912
C  -1.424887   0.172265  -0.010044
H  -2.669485  -1.398918  -0.883345
H  -2.706485  -1.227129   0.841252
C  -0.174416  -0.683140   0.066635
H  -1.401442   0.779957   0.813744
H  -1.352558   0.904083  -0.956074
H  -0.106167  -1.454745   1.062660
H   0.811715  -0.044118  -0.170835
H  -0.258751  -1.144072  -0.718061
