14
butane_opt
C  -3.935016   0.278201   0.055142
C  -2.700353  -0.631622  -0.004376
H  -4.836047  -0.304418   0.264166
H  -4.076710   1.076550  -0.928414
H  -3.868542   0.877789   0.832259
C  -1.397846   0.158610  -0.011780
H  -2.727026  -1.469935  -0.970425
H  -2.633959  -1.165298   0.806382
C  -0.175260  -0.669290   0.067581
H  -1.387796   0.841869   0.832608
H  -1.323447   0.786671  -0.948066
H  -0.247147  -1.308766   1.005935
H   0.711549  -0.118873   0.028031
H  -0.133328  -1.310393  -0.774231
