butane_opt
 OpenBabel08242015413D

 14 13  0  0  0  0  0  0  0  0999 V2000
   -3.9430    0.2780    0.0501 C   0  0  0  0  0  0  0  0  0  0  0  0
   -2.6814   -0.6326    0.0060 C   0  0  0  0  0  0  0  0  0  0  0  0
   -4.7628   -0.2686   -0.1279 H   0  0  0  0  0  0  0  0  0  0  0  0
   -3.9656    0.7261   -0.7449 H   0  0  0  0  0  0  0  0  0  0  0  0
   -3.9472    1.0639    1.0029 H   0  0  0  0  0  0  0  0  0  0  0  0
   -1.4249    0.1723   -0.0100 C   0  0  0  0  0  0  0  0  0  0  0  0
   -2.6695   -1.3989   -0.8833 H   0  0  0  0  0  0  0  0  0  0  0  0
   -2.7065   -1.2271    0.8413 H   0  0  0  0  0  0  0  0  0  0  0  0
   -0.1744   -0.6831    0.0666 C   0  0  0  0  0  0  0  0  0  0  0  0
   -1.4014    0.7800    0.8137 H   0  0  0  0  0  0  0  0  0  0  0  0
   -1.3526    0.9041   -0.9561 H   0  0  0  0  0  0  0  0  0  0  0  0
   -0.1062   -1.4547    1.0627 H   0  0  0  0  0  0  0  0  0  0  0  0
    0.8117   -0.0441   -0.1708 H   0  0  0  0  0  0  0  0  0  0  0  0
   -0.2588   -1.1441   -0.7181 H   0  0  0  0  0  0  0  0  0  0  0  0
  1  5  1  0  0  0  0
  2  1  1  0  0  0  0
  2  8  1  0  0  0  0
  3  1  1  0  0  0  0
  4  1  1  0  0  0  0
  6  2  1  0  0  0  0
  6  9  1  0  0  0  0
  6 10  1  0  0  0  0
  7  2  1  0  0  0  0
  9 12  1  0  0  0  0
 11  6  1  0  0  0  0
 13  9  1  0  0  0  0
 14  9  1  0  0  0  0
M  END
$$$$
