14
butane_opt
C  -3.945586   0.276407   0.051023
C  -2.675360  -0.606968  -0.030229
H  -4.892157  -0.411317   0.149645
H  -4.046364   0.801608  -0.779734
H  -3.946020   1.021408   0.966682
C  -1.395609   0.165051  -0.020722
H  -2.750091  -1.314521  -0.865144
H  -2.586129  -1.251061   0.858556
C  -0.183037  -0.682767   0.087887
H  -1.462232   0.813035   0.776166
H  -1.337101   0.756650  -0.904978
H  -0.125280  -1.418701   1.033209
H   0.752006  -0.066842  -0.102003
H  -0.227046  -1.215241  -0.730266
