butane_opt
 OpenBabel08242015413D

 14 13  0  0  0  0  0  0  0  0999 V2000
   -3.9576    0.2985    0.0611 C   0  0  0  0  0  0  0  0  0  0  0  0
   -2.6823   -0.6362   -0.0076 C   0  0  0  0  0  0  0  0  0  0  0  0
   -4.8549   -0.3089   -0.1401 H   0  0  0  0  0  0  0  0  0  0  0  0
   -3.8558    0.6562   -0.6543 H   0  0  0  0  0  0  0  0  0  0  0  0
   -3.9407    1.1848    1.0926 H   0  0  0  0  0  0  0  0  0  0  0  0
   -1.3960    0.1504   -0.0434 C   0  0  0  0  0  0  0  0  0  0  0  0
   -2.7285   -1.2962   -0.8107 H   0  0  0  0  0  0  0  0  0  0  0  0
   -2.6909   -1.3131    0.8914 H   0  0  0  0  0  0  0  0  0  0  0  0
   -0.1824   -0.6691    0.0755 C   0  0  0  0  0  0  0  0  0  0  0  0
   -1.4065    0.7393    0.7158 H   0  0  0  0  0  0  0  0  0  0  0  0
   -1.3344    0.8453   -1.0101 H   0  0  0  0  0  0  0  0  0  0  0  0
   -0.1831   -1.4061    1.0515 H   0  0  0  0  0  0  0  0  0  0  0  0
    0.7773   -0.0102    0.0300 H   0  0  0  0  0  0  0  0  0  0  0  0
   -0.2153   -1.2702   -0.7140 H   0  0  0  0  0  0  0  0  0  0  0  0
  1  5  1  0  0  0  0
  2  1  1  0  0  0  0
  2  8  1  0  0  0  0
  3  1  1  0  0  0  0
  4  1  1  0  0  0  0
  6  2  1  0  0  0  0
  6  9  1  0  0  0  0
  6 10  1  0  0  0  0
  7  2  1  0  0  0  0
  9 12  1  0  0  0  0
 11  6  1  0  0  0  0
 13  9  1  0  0  0  0
 14  9  1  0  0  0  0
M  END
$$$$
