butane_opt
 OpenBabel08242015413D

 14 13  0  0  0  0  0  0  0  0999 V2000
   -3.9451    0.2690    0.0743 C   0  0  0  0  0  0  0  0  0  0  0  0
   -2.7006   -0.6308   -0.0000 C   0  0  0  0  0  0  0  0  0  0  0  0
   -4.7756   -0.2799   -0.2406 H   0  0  0  0  0  0  0  0  0  0  0  0
   -3.9854    0.6992   -0.7238 H   0  0  0  0  0  0  0  0  0  0  0  0
   -4.1347    1.1737    1.0589 H   0  0  0  0  0  0  0  0  0  0  0  0
   -1.4006    0.1833   -0.0576 C   0  0  0  0  0  0  0  0  0  0  0  0
   -2.7975   -1.2937   -0.7966 H   0  0  0  0  0  0  0  0  0  0  0  0
   -2.6558   -1.2779    0.8949 H   0  0  0  0  0  0  0  0  0  0  0  0
   -0.1546   -0.6899    0.0740 C   0  0  0  0  0  0  0  0  0  0  0  0
   -1.3351    0.8053    0.7834 H   0  0  0  0  0  0  0  0  0  0  0  0
   -1.3614    0.8018   -0.9586 H   0  0  0  0  0  0  0  0  0  0  0  0
   -0.1834   -1.3683    1.0183 H   0  0  0  0  0  0  0  0  0  0  0  0
    0.7420   -0.0842   -0.0133 H   0  0  0  0  0  0  0  0  0  0  0  0
   -0.1179   -1.2170   -0.6473 H   0  0  0  0  0  0  0  0  0  0  0  0
  1  5  1  0  0  0  0
  2  1  1  0  0  0  0
  2  8  1  0  0  0  0
  3  1  1  0  0  0  0
  4  1  1  0  0  0  0
  6  2  1  0  0  0  0
  6  9  1  0  0  0  0
  6 10  1  0  0  0  0
  7  2  1  0  0  0  0
  9 12  1  0  0  0  0
 11  6  1  0  0  0  0
 13  9  1  0  0  0  0
 14  9  1  0  0  0  0
M  END
$$$$
