butane_opt
 OpenBabel08242015413D

 14 13  0  0  0  0  0  0  0  0999 V2000
   -3.9502    0.2474    0.0606 C   0  0  0  0  0  0  0  0  0  0  0  0
   -2.7162   -0.5989    0.0154 C   0  0  0  0  0  0  0  0  0  0  0  0
   -4.8617   -0.3695   -0.0886 H   0  0  0  0  0  0  0  0  0  0  0  0
   -3.9328    0.7335   -0.7776 H   0  0  0  0  0  0  0  0  0  0  0  0
   -3.9022    1.1127    1.0677 H   0  0  0  0  0  0  0  0  0  0  0  0
   -1.4115    0.1942   -0.0563 C   0  0  0  0  0  0  0  0  0  0  0  0
   -2.8187   -1.3797   -0.8974 H   0  0  0  0  0  0  0  0  0  0  0  0
   -2.6716   -1.1618    0.8636 H   0  0  0  0  0  0  0  0  0  0  0  0
   -0.1288   -0.7090    0.0740 C   0  0  0  0  0  0  0  0  0  0  0  0
   -1.4552    0.8298    0.7541 H   0  0  0  0  0  0  0  0  0  0  0  0
   -1.4646    0.9412   -0.9944 H   0  0  0  0  0  0  0  0  0  0  0  0
   -0.1712   -1.3635    1.0615 H   0  0  0  0  0  0  0  0  0  0  0  0
    0.7799   -0.1237    0.0725 H   0  0  0  0  0  0  0  0  0  0  0  0
   -0.0449   -1.2991   -0.7292 H   0  0  0  0  0  0  0  0  0  0  0  0
  1  5  1  0  0  0  0
  2  1  1  0  0  0  0
  2  8  1  0  0  0  0
  3  1  1  0  0  0  0
  4  1  1  0  0  0  0
  6  2  1  0  0  0  0
  6  9  1  0  0  0  0
  6 10  1  0  0  0  0
  7  2  1  0  0  0  0
  9 12  1  0  0  0  0
 11  6  1  0  0  0  0
 13  9  1  0  0  0  0
 14  9  1  0  0  0  0
M  END
$$$$
