butane_opt
 OpenBabel08242015413D

 14 13  0  0  0  0  0  0  0  0999 V2000
   -3.9629    0.2963   -0.0396 C   0  0  0  0  0  0  0  0  0  0  0  0
   -2.7039   -0.6538    0.1132 C   0  0  0  0  0  0  0  0  0  0  0  0
   -4.8482   -0.2863   -0.1948 H   0  0  0  0  0  0  0  0  0  0  0  0
   -3.9234    0.7657   -0.8481 H   0  0  0  0  0  0  0  0  0  0  0  0
   -4.1287    0.9951    0.8890 H   0  0  0  0  0  0  0  0  0  0  0  0
   -1.3861    0.1741    0.0531 C   0  0  0  0  0  0  0  0  0  0  0  0
   -2.5928   -1.2837   -0.7147 H   0  0  0  0  0  0  0  0  0  0  0  0
   -2.7051   -1.2816    1.0360 H   0  0  0  0  0  0  0  0  0  0  0  0
   -0.1643   -0.6749   -0.0142 C   0  0  0  0  0  0  0  0  0  0  0  0
   -1.2393    0.8227    0.8802 H   0  0  0  0  0  0  0  0  0  0  0  0
   -1.4450    0.7948   -0.8542 H   0  0  0  0  0  0  0  0  0  0  0  0
   -0.0322   -1.2529    0.8479 H   0  0  0  0  0  0  0  0  0  0  0  0
    0.7347   -0.0849   -0.0338 H   0  0  0  0  0  0  0  0  0  0  0  0
   -0.2398   -1.3624   -0.8968 H   0  0  0  0  0  0  0  0  0  0  0  0
  1  2  1  0  0  0  0
  1  5  1  0  0  0  0
  2  8  1  0  0  0  0
  3  1  1  0  0  0  0
  4  1  1  0  0  0  0
  6  2  1  0  0  0  0
  6 10  1  0  0  0  0
  7  2  1  0  0  0  0
  9  6  1  0  0  0  0
  9 12  1  0  0  0  0
 11  6  1  0  0  0  0
 13  9  1  0  0  0  0
 14  9  1  0  0  0  0
M  END
$$$$
