14
butane_opt
C  -3.973586   0.270418   0.037093
C  -2.700105  -0.624724  -0.000416
H  -4.854767  -0.301998   0.022852
H  -4.077961   0.818643  -0.756706
H  -3.976479   1.074852   0.979267
C  -1.382022   0.162553   0.002126
H  -2.708118  -1.381022  -0.900705
H  -2.738438  -1.195143   0.797815
C  -0.149820  -0.684899   0.064085
H  -1.447291   0.870899   0.859222
H  -1.343208   0.879242  -0.949392
H  -0.060552  -1.483343   1.093898
H   0.829137  -0.048754  -0.276098
H  -0.190256  -1.172249  -0.642108
