14
butane_opt
C  -3.962918   0.296291  -0.039631
C  -2.703933  -0.653820   0.113184
H  -4.848214  -0.286308  -0.194798
H  -3.923386   0.765668  -0.848068
H  -4.128696   0.995147   0.889021
C  -1.386140   0.174113   0.053117
H  -2.592842  -1.283722  -0.714749
H  -2.705070  -1.281623   1.036005
C  -0.164328  -0.674918  -0.014208
H  -1.239284   0.822709   0.880182
H  -1.445041   0.794787  -0.854188
H  -0.032165  -1.252874   0.847898
H   0.734704  -0.084896  -0.033763
H  -0.239809  -1.362413  -0.896834
