butane_opt
 OpenBabel08242015413D

 14 13  0  0  0  0  0  0  0  0999 V2000
   -3.9360    0.2569    0.0752 C   0  0  0  0  0  0  0  0  0  0  0  0
   -2.6927   -0.6073   -0.0075 C   0  0  0  0  0  0  0  0  0  0  0  0
   -4.8657   -0.3997    0.1249 H   0  0  0  0  0  0  0  0  0  0  0  0
   -3.9368    0.8158   -0.8048 H   0  0  0  0  0  0  0  0  0  0  0  0
   -3.8852    0.9307    0.9581 H   0  0  0  0  0  0  0  0  0  0  0  0
   -1.3990    0.2159   -0.0677 C   0  0  0  0  0  0  0  0  0  0  0  0
   -2.8387   -1.3376   -0.8900 H   0  0  0  0  0  0  0  0  0  0  0  0
   -2.6604   -1.1200    0.8310 H   0  0  0  0  0  0  0  0  0  0  0  0
   -0.1814   -0.7207    0.0951 C   0  0  0  0  0  0  0  0  0  0  0  0
   -1.4960    0.8360    0.7517 H   0  0  0  0  0  0  0  0  0  0  0  0
   -1.2986    0.8549   -1.0063 H   0  0  0  0  0  0  0  0  0  0  0  0
   -0.1942   -1.2650    0.9352 H   0  0  0  0  0  0  0  0  0  0  0  0
    0.6874   -0.1855    0.1646 H   0  0  0  0  0  0  0  0  0  0  0  0
   -0.0184   -1.3465   -0.7710 H   0  0  0  0  0  0  0  0  0  0  0  0
  1  3  1  0  0  0  0
  1  5  1  0  0  0  0
  2  1  1  0  0  0  0
  2  8  1  0  0  0  0
  4  1  1  0  0  0  0
  6  2  1  0  0  0  0
  6  9  1  0  0  0  0
  6 10  1  0  0  0  0
  7  2  1  0  0  0  0
  9 13  1  0  0  0  0
  9 12  1  0  0  0  0
 11  6  1  0  0  0  0
 14  9  1  0  0  0  0
M  END
$$$$
