14
butane_opt
C  -3.939588   0.247059   0.056552
C  -2.704670  -0.596199   0.013843
H  -4.873001  -0.360435  -0.187669
H  -3.831664   0.620778  -0.729144
H  -3.916051   1.165118   1.069977
C  -1.417672   0.209098  -0.028619
H  -2.777589  -1.334839  -0.872134
H  -2.697896  -1.208620   0.913752
C  -0.161969  -0.708890   0.061792
H  -1.376221   0.764847   0.761784
H  -1.362637   0.965258  -1.062627
H  -0.098578  -1.440093   1.020786
H   0.693132  -0.203224   0.019587
H  -0.094402  -1.258696  -0.697943
