14
butane_opt
C  -3.932473   0.270175  -0.043796
C  -2.686458  -0.621251   0.079749
H  -4.793208  -0.312442  -0.034976
H  -3.960266   0.884460  -0.938267
H  -3.998721   0.963021   0.844535
C  -1.391397   0.186035   0.079161
H  -2.693985  -1.257809  -0.709071
H  -2.766357  -1.328776   1.008332
C  -0.191886  -0.692618  -0.013131
H  -1.439123   0.900940   0.974581
H  -1.402695   0.694829  -0.697467
H  -0.021560  -1.384686   0.910210
H   0.761570  -0.073630  -0.275951
H  -0.290463  -1.242966  -0.868058
