butane_opt
 OpenBabel08242015413D

 14 13  0  0  0  0  0  0  0  0999 V2000
   -3.9291    0.2836    0.0008 C   0  0  0  0  0  0  0  0  0  0  0  0
   -2.6857   -0.6279    0.0286 C   0  0  0  0  0  0  0  0  0  0  0  0
   -4.8419   -0.3465    0.3342 H   0  0  0  0  0  0  0  0  0  0  0  0
   -4.0929    1.0682   -0.9902 H   0  0  0  0  0  0  0  0  0  0  0  0
   -3.9252    0.8038    0.7793 H   0  0  0  0  0  0  0  0  0  0  0  0
   -1.4216    0.1448    0.0222 C   0  0  0  0  0  0  0  0  0  0  0  0
   -2.7308   -1.2331   -0.7969 H   0  0  0  0  0  0  0  0  0  0  0  0
   -2.6136   -1.2550    0.8845 H   0  0  0  0  0  0  0  0  0  0  0  0
   -0.1763   -0.6704    0.0304 C   0  0  0  0  0  0  0  0  0  0  0  0
   -1.3671    0.8869    0.9719 H   0  0  0  0  0  0  0  0  0  0  0  0
   -1.3272    0.7044   -0.8458 H   0  0  0  0  0  0  0  0  0  0  0  0
   -0.1892   -1.1979    0.8867 H   0  0  0  0  0  0  0  0  0  0  0  0
    0.8004   -0.0072    0.0674 H   0  0  0  0  0  0  0  0  0  0  0  0
   -0.1903   -1.4450   -0.8651 H   0  0  0  0  0  0  0  0  0  0  0  0
  1  2  1  0  0  0  0
  1  3  1  0  0  0  0
  1  5  1  0  0  0  0
  2  8  1  0  0  0  0
  4  1  1  0  0  0  0
  6  2  1  0  0  0  0
  6  9  1  0  0  0  0
  6 10  1  0  0  0  0
  7  2  1  0  0  0  0
  9 13  1  0  0  0  0
  9 12  1  0  0  0  0
 11  6  1  0  0  0  0
 14  9  1  0  0  0  0
M  END
$$$$
