14
butane_opt
C  -3.947872   0.280906   0.033283
C  -2.668054  -0.636044  -0.008555
H  -4.796419  -0.247388  -0.005650
H  -3.962912   0.786642  -0.800834
H  -3.962876   1.009411   0.945437
C  -1.408710   0.169333   0.019373
H  -2.787067  -1.331933  -0.836671
H  -2.659111  -1.264569   0.887452
C  -0.182020  -0.675996   0.048774
H  -1.428747   0.855924   0.862999
H  -1.394828   0.741073  -0.841671
H  -0.144195  -1.503564   1.081882
H   0.800110  -0.059215  -0.273899
H  -0.228558  -1.087508  -0.675829
