butane_opt
 OpenBabel08242015413D

 14 13  0  0  0  0  0  0  0  0999 V2000
   -3.9439    0.2580    0.0594 C   0  0  0  0  0  0  0  0  0  0  0  0
   -2.7122   -0.6009   -0.0161 C   0  0  0  0  0  0  0  0  0  0  0  0
   -4.8728   -0.3491    0.2074 H   0  0  0  0  0  0  0  0  0  0  0  0
   -4.0329    0.9281   -0.8855 H   0  0  0  0  0  0  0  0  0  0  0  0
   -3.9159    0.8999    0.8983 H   0  0  0  0  0  0  0  0  0  0  0  0
   -1.3996    0.1873   -0.0149 C   0  0  0  0  0  0  0  0  0  0  0  0
   -2.7330   -1.3403   -0.9282 H   0  0  0  0  0  0  0  0  0  0  0  0
   -2.7219   -1.2001    0.8649 H   0  0  0  0  0  0  0  0  0  0  0  0
   -0.1549   -0.7015    0.0718 C   0  0  0  0  0  0  0  0  0  0  0  0
   -1.4314    0.8215    0.7882 H   0  0  0  0  0  0  0  0  0  0  0  0
   -1.3375    0.8546   -0.9608 H   0  0  0  0  0  0  0  0  0  0  0  0
   -0.1353   -1.3229    0.9767 H   0  0  0  0  0  0  0  0  0  0  0  0
    0.7899   -0.1101    0.0575 H   0  0  0  0  0  0  0  0  0  0  0  0
   -0.1011   -1.3626   -0.7775 H   0  0  0  0  0  0  0  0  0  0  0  0
  1  3  1  0  0  0  0
  1  5  1  0  0  0  0
  2  6  1  0  0  0  0
  2  1  1  0  0  0  0
  2  8  1  0  0  0  0
  4  1  1  0  0  0  0
  6  9  1  0  0  0  0
  6 10  1  0  0  0  0
  7  2  1  0  0  0  0
  9 12  1  0  0  0  0
 11  6  1  0  0  0  0
 13  9  1  0  0  0  0
 14  9  1  0  0  0  0
M  END
$$$$
