14
butane_opt
C  -3.912529   0.253479   0.054883
C  -2.705177  -0.609959  -0.021831
H  -4.872044  -0.381680   0.139593
H  -3.965752   0.850364  -0.808705
H  -3.837065   0.985090   0.921207
C  -1.413972   0.202376  -0.017438
H  -2.729151  -1.264959  -0.866899
H  -2.758935  -1.184782   0.775317
C  -0.179923  -0.714982   0.083361
H  -1.498655   0.915515   0.842792
H  -1.382237   0.827388  -0.901442
H  -0.042418  -1.452270   1.061508
H   0.767073  -0.083560  -0.185262
H  -0.174259  -1.254171  -0.707889
