14
butane_opt
C  -3.925388   0.257476  -0.026983
C  -2.710757  -0.592163   0.087007
H  -4.868562  -0.413379   0.112433
H  -3.888382   0.993587  -1.017513
H  -3.930407   0.810667   0.751500
C  -1.405475   0.188702   0.052505
H  -2.714968  -1.216662  -0.725037
H  -2.772239  -1.312725   1.054337
C  -0.159027  -0.716328  -0.017178
H  -1.359722   0.954921   0.965648
H  -1.585032   0.756216  -0.836169
H  -0.195411  -1.129240   0.764184
H   0.781760  -0.105776   0.166758
H  -0.082077  -1.459549  -0.954589
