butane_opt
 OpenBabel08242015413D

 14 13  0  0  0  0  0  0  0  0999 V2000
   -3.9589    0.2800   -0.0440 C   0  0  0  0  0  0  0  0  0  0  0  0
   -2.7051   -0.6350    0.0579 C   0  0  0  0  0  0  0  0  0  0  0  0
   -4.8329   -0.3293    0.2777 H   0  0  0  0  0  0  0  0  0  0  0  0
   -4.1386    1.0795   -1.0233 H   0  0  0  0  0  0  0  0  0  0  0  0
   -3.9347    0.7552    0.7060 H   0  0  0  0  0  0  0  0  0  0  0  0
   -1.3971    0.1789    0.0898 C   0  0  0  0  0  0  0  0  0  0  0  0
   -2.6647   -1.2794   -0.7306 H   0  0  0  0  0  0  0  0  0  0  0  0
   -2.6773   -1.2876    0.9896 H   0  0  0  0  0  0  0  0  0  0  0  0
   -0.1612   -0.6763   -0.0106 C   0  0  0  0  0  0  0  0  0  0  0  0
   -1.2883    0.8938    0.9524 H   0  0  0  0  0  0  0  0  0  0  0  0
   -1.3461    0.7378   -0.7186 H   0  0  0  0  0  0  0  0  0  0  0  0
   -0.0548   -1.2729    0.8366 H   0  0  0  0  0  0  0  0  0  0  0  0
    0.7387   -0.0897   -0.0644 H   0  0  0  0  0  0  0  0  0  0  0  0
   -0.1574   -1.4421   -0.9354 H   0  0  0  0  0  0  0  0  0  0  0  0
  1  2  1  0  0  0  0
  1  3  1  0  0  0  0
  1  5  1  0  0  0  0
  2  6  1  0  0  0  0
  2  8  1  0  0  0  0
  4  1  1  0  0  0  0
  6 10  1  0  0  0  0
  7  2  1  0  0  0  0
  9  6  1  0  0  0  0
  9 12  1  0  0  0  0
 11  6  1  0  0  0  0
 13  9  1  0  0  0  0
 14  9  1  0  0  0  0
M  END
$$$$
