butane_opt
 OpenBabel08242015413D

 14 13  0  0  0  0  0  0  0  0999 V2000
   -3.9433    0.2641   -0.0327 C   0  0  0  0  0  0  0  0  0  0  0  0
   -2.6779   -0.6212    0.0747 C   0  0  0  0  0  0  0  0  0  0  0  0
   -4.8485   -0.3146   -0.0161 H   0  0  0  0  0  0  0  0  0  0  0  0
   -3.9199    0.9704   -0.9806 H   0  0  0  0  0  0  0  0  0  0  0  0
   -4.0723    0.9077    0.8118 H   0  0  0  0  0  0  0  0  0  0  0  0
   -1.4047    0.1792    0.0830 C   0  0  0  0  0  0  0  0  0  0  0  0
   -2.6894   -1.3005   -0.8119 H   0  0  0  0  0  0  0  0  0  0  0  0
   -2.6336   -1.3048    1.0375 H   0  0  0  0  0  0  0  0  0  0  0  0
   -0.1918   -0.6836   -0.0171 C   0  0  0  0  0  0  0  0  0  0  0  0
   -1.3324    0.9426    0.9841 H   0  0  0  0  0  0  0  0  0  0  0  0
   -1.4052    0.6855   -0.7373 H   0  0  0  0  0  0  0  0  0  0  0  0
   -0.0150   -1.3923    0.9597 H   0  0  0  0  0  0  0  0  0  0  0  0
    0.7359   -0.0541   -0.2626 H   0  0  0  0  0  0  0  0  0  0  0  0
   -0.2289   -1.2659   -0.8441 H   0  0  0  0  0  0  0  0  0  0  0  0
  1  3  1  0  0  0  0
  1  2  1  0  0  0  0
  1  5  1  0  0  0  0
  2  6  1  0  0  0  0
  2  8  1  0  0  0  0
  4  1  1  0  0  0  0
  6 10  1  0  0  0  0
  7  2  1  0  0  0  0
  9  6  1  0  0  0  0
  9 12  1  0  0  0  0
 11  6  1  0  0  0  0
 13  9  1  0  0  0  0
 14  9  1  0  0  0  0
M  END
$$$$
