butane_opt
 OpenBabel08242015413D

 14 13  0  0  0  0  0  0  0  0999 V2000
   -3.9564    0.2867   -0.0044 C   0  0  0  0  0  0  0  0  0  0  0  0
   -2.7128   -0.6410    0.0512 C   0  0  0  0  0  0  0  0  0  0  0  0
   -4.8485   -0.3038    0.1058 H   0  0  0  0  0  0  0  0  0  0  0  0
   -4.0703    1.0154   -0.9223 H   0  0  0  0  0  0  0  0  0  0  0  0
   -3.9219    0.7868    0.7599 H   0  0  0  0  0  0  0  0  0  0  0  0
   -1.3828    0.1731    0.0309 C   0  0  0  0  0  0  0  0  0  0  0  0
   -2.7119   -1.1544   -0.6959 H   0  0  0  0  0  0  0  0  0  0  0  0
   -2.7256   -1.3566    0.9955 H   0  0  0  0  0  0  0  0  0  0  0  0
   -0.1527   -0.6892    0.0147 C   0  0  0  0  0  0  0  0  0  0  0  0
   -1.3967    0.8692    0.9346 H   0  0  0  0  0  0  0  0  0  0  0  0
   -1.4473    0.7915   -0.8605 H   0  0  0  0  0  0  0  0  0  0  0  0
   -0.1834   -1.0855    0.7456 H   0  0  0  0  0  0  0  0  0  0  0  0
    0.8300   -0.0616    0.1814 H   0  0  0  0  0  0  0  0  0  0  0  0
   -0.1071   -1.5194   -0.9541 H   0  0  0  0  0  0  0  0  0  0  0  0
  1  2  1  0  0  0  0
  1  3  1  0  0  0  0
  1  5  1  0  0  0  0
  2  8  1  0  0  0  0
  4  1  1  0  0  0  0
  6  2  1  0  0  0  0
  6 10  1  0  0  0  0
  7  2  1  0  0  0  0
  9  6  1  0  0  0  0
  9 13  1  0  0  0  0
  9 12  1  0  0  0  0
 11  6  1  0  0  0  0
 14  9  1  0  0  0  0
M  END
$$$$
