butane_opt
 OpenBabel08242015413D

 14 13  0  0  0  0  0  0  0  0999 V2000
   -3.9125    0.2535    0.0549 C   0  0  0  0  0  0  0  0  0  0  0  0
   -2.7052   -0.6100   -0.0218 C   0  0  0  0  0  0  0  0  0  0  0  0
   -4.8720   -0.3817    0.1396 H   0  0  0  0  0  0  0  0  0  0  0  0
   -3.9658    0.8504   -0.8087 H   0  0  0  0  0  0  0  0  0  0  0  0
   -3.8371    0.9851    0.9212 H   0  0  0  0  0  0  0  0  0  0  0  0
   -1.4140    0.2024   -0.0174 C   0  0  0  0  0  0  0  0  0  0  0  0
   -2.7292   -1.2650   -0.8669 H   0  0  0  0  0  0  0  0  0  0  0  0
   -2.7589   -1.1848    0.7753 H   0  0  0  0  0  0  0  0  0  0  0  0
   -0.1799   -0.7150    0.0834 C   0  0  0  0  0  0  0  0  0  0  0  0
   -1.4987    0.9155    0.8428 H   0  0  0  0  0  0  0  0  0  0  0  0
   -1.3822    0.8274   -0.9014 H   0  0  0  0  0  0  0  0  0  0  0  0
   -0.0424   -1.4523    1.0615 H   0  0  0  0  0  0  0  0  0  0  0  0
    0.7671   -0.0836   -0.1853 H   0  0  0  0  0  0  0  0  0  0  0  0
   -0.1743   -1.2542   -0.7079 H   0  0  0  0  0  0  0  0  0  0  0  0
  1  3  1  0  0  0  0
  1  5  1  0  0  0  0
  2  6  1  0  0  0  0
  2  1  1  0  0  0  0
  2  8  1  0  0  0  0
  4  1  1  0  0  0  0
  6  9  1  0  0  0  0
  6 10  1  0  0  0  0
  7  2  1  0  0  0  0
  9 12  1  0  0  0  0
 11  6  1  0  0  0  0
 13  9  1  0  0  0  0
 14  9  1  0  0  0  0
M  END
$$$$
