butane_opt
 OpenBabel08242015413D

 14 13  0  0  0  0  0  0  0  0999 V2000
   -3.9131    0.2417   -0.0333 C   0  0  0  0  0  0  0  0  0  0  0  0
   -2.7110   -0.5869    0.0794 C   0  0  0  0  0  0  0  0  0  0  0  0
   -4.8476   -0.3500    0.0272 H   0  0  0  0  0  0  0  0  0  0  0  0
   -3.8471    0.9708   -1.0135 H   0  0  0  0  0  0  0  0  0  0  0  0
   -3.9022    0.8497    0.8471 H   0  0  0  0  0  0  0  0  0  0  0  0
   -1.4276    0.1931    0.0711 C   0  0  0  0  0  0  0  0  0  0  0  0
   -2.6751   -1.2118   -0.7418 H   0  0  0  0  0  0  0  0  0  0  0  0
   -2.8251   -1.2495    1.0008 H   0  0  0  0  0  0  0  0  0  0  0  0
   -0.1672   -0.7097   -0.0292 C   0  0  0  0  0  0  0  0  0  0  0  0
   -1.3505    0.9761    1.0148 H   0  0  0  0  0  0  0  0  0  0  0  0
   -1.4444    0.7407   -0.7319 H   0  0  0  0  0  0  0  0  0  0  0  0
   -0.0317   -1.3962    0.8888 H   0  0  0  0  0  0  0  0  0  0  0  0
    0.7462   -0.1572   -0.0686 H   0  0  0  0  0  0  0  0  0  0  0  0
   -0.2171   -1.2981   -0.8322 H   0  0  0  0  0  0  0  0  0  0  0  0
  1  3  1  0  0  0  0
  1  2  1  0  0  0  0
  1  5  1  0  0  0  0
  2  8  1  0  0  0  0
  4  1  1  0  0  0  0
  6  2  1  0  0  0  0
  6 10  1  0  0  0  0
  7  2  1  0  0  0  0
  9  6  1  0  0  0  0
  9 12  1  0  0  0  0
 11  6  1  0  0  0  0
 13  9  1  0  0  0  0
 14  9  1  0  0  0  0
M  END
$$$$
