butane_opt
 OpenBabel08242015413D

 14 13  0  0  0  0  0  0  0  0999 V2000
   -3.9254    0.2575   -0.0270 C   0  0  0  0  0  0  0  0  0  0  0  0
   -2.7108   -0.5922    0.0870 C   0  0  0  0  0  0  0  0  0  0  0  0
   -4.8686   -0.4134    0.1124 H   0  0  0  0  0  0  0  0  0  0  0  0
   -3.8884    0.9936   -1.0175 H   0  0  0  0  0  0  0  0  0  0  0  0
   -3.9304    0.8107    0.7515 H   0  0  0  0  0  0  0  0  0  0  0  0
   -1.4055    0.1887    0.0525 C   0  0  0  0  0  0  0  0  0  0  0  0
   -2.7150   -1.2167   -0.7250 H   0  0  0  0  0  0  0  0  0  0  0  0
   -2.7722   -1.3127    1.0543 H   0  0  0  0  0  0  0  0  0  0  0  0
   -0.1590   -0.7163   -0.0172 C   0  0  0  0  0  0  0  0  0  0  0  0
   -1.3597    0.9549    0.9656 H   0  0  0  0  0  0  0  0  0  0  0  0
   -1.5850    0.7562   -0.8362 H   0  0  0  0  0  0  0  0  0  0  0  0
   -0.1954   -1.1292    0.7642 H   0  0  0  0  0  0  0  0  0  0  0  0
    0.7818   -0.1058    0.1668 H   0  0  0  0  0  0  0  0  0  0  0  0
   -0.0821   -1.4595   -0.9546 H   0  0  0  0  0  0  0  0  0  0  0  0
  1  2  1  0  0  0  0
  1  3  1  0  0  0  0
  1  5  1  0  0  0  0
  2  8  1  0  0  0  0
  4  1  1  0  0  0  0
  6  2  1  0  0  0  0
  6 10  1  0  0  0  0
  7  2  1  0  0  0  0
  9  6  1  0  0  0  0
  9 13  1  0  0  0  0
  9 12  1  0  0  0  0
 11  6  1  0  0  0  0
 14  9  1  0  0  0  0
M  END
$$$$
