14
butane_opt
C  -3.916452   0.257158   0.049873
C  -2.697784  -0.613335   0.028983
H  -4.869962  -0.378946  -0.174264
H  -3.856733   0.655583  -0.712481
H  -4.011418   1.108677   1.031067
C  -1.429667   0.205559  -0.030481
H  -2.671313  -1.353363  -0.845503
H  -2.631958  -1.174645   0.880746
C  -0.182376  -0.694881   0.057337
H  -1.411357   0.804906   0.733540
H  -1.373663   0.920702  -0.961193
H  -0.203338  -1.475403   1.045626
H   0.760012  -0.139458  -0.031846
H  -0.034868  -1.305344  -0.768597
