butane_opt
 OpenBabel08242015413D

 14 13  0  0  0  0  0  0  0  0999 V2000
   -3.9311    0.2734   -0.0113 C   0  0  0  0  0  0  0  0  0  0  0  0
   -2.6948   -0.6450    0.0649 C   0  0  0  0  0  0  0  0  0  0  0  0
   -4.8300   -0.3049   -0.0547 H   0  0  0  0  0  0  0  0  0  0  0  0
   -3.9933    0.9704   -0.9647 H   0  0  0  0  0  0  0  0  0  0  0  0
   -3.9825    0.9840    0.8616 H   0  0  0  0  0  0  0  0  0  0  0  0
   -1.4130    0.1786    0.0589 C   0  0  0  0  0  0  0  0  0  0  0  0
   -2.6456   -1.3345   -0.8066 H   0  0  0  0  0  0  0  0  0  0  0  0
   -2.6769   -1.2688    0.9536 H   0  0  0  0  0  0  0  0  0  0  0  0
   -0.1657   -0.6753    0.0141 C   0  0  0  0  0  0  0  0  0  0  0  0
   -1.3629    0.8267    0.9254 H   0  0  0  0  0  0  0  0  0  0  0  0
   -1.3909    0.8255   -0.8395 H   0  0  0  0  0  0  0  0  0  0  0  0
   -0.0859   -1.3336    0.8642 H   0  0  0  0  0  0  0  0  0  0  0  0
    0.7498   -0.0967   -0.1810 H   0  0  0  0  0  0  0  0  0  0  0  0
   -0.3418   -1.3120   -0.8432 H   0  0  0  0  0  0  0  0  0  0  0  0
  1  2  1  0  0  0  0
  1  5  1  0  0  0  0
  2  8  1  0  0  0  0
  3  1  1  0  0  0  0
  4  1  1  0  0  0  0
  6  2  1  0  0  0  0
  6 10  1  0  0  0  0
  7  2  1  0  0  0  0
  9  6  1  0  0  0  0
  9 12  1  0  0  0  0
 11  6  1  0  0  0  0
 13  9  1  0  0  0  0
 14  9  1  0  0  0  0
M  END
$$$$
