butane_opt
 OpenBabel08242015413D

 14 13  0  0  0  0  0  0  0  0999 V2000
   -3.9165    0.2572    0.0499 C   0  0  0  0  0  0  0  0  0  0  0  0
   -2.6978   -0.6133    0.0290 C   0  0  0  0  0  0  0  0  0  0  0  0
   -4.8700   -0.3789   -0.1743 H   0  0  0  0  0  0  0  0  0  0  0  0
   -3.8567    0.6556   -0.7125 H   0  0  0  0  0  0  0  0  0  0  0  0
   -4.0114    1.1087    1.0311 H   0  0  0  0  0  0  0  0  0  0  0  0
   -1.4297    0.2056   -0.0305 C   0  0  0  0  0  0  0  0  0  0  0  0
   -2.6713   -1.3534   -0.8455 H   0  0  0  0  0  0  0  0  0  0  0  0
   -2.6320   -1.1746    0.8807 H   0  0  0  0  0  0  0  0  0  0  0  0
   -0.1824   -0.6949    0.0573 C   0  0  0  0  0  0  0  0  0  0  0  0
   -1.4114    0.8049    0.7335 H   0  0  0  0  0  0  0  0  0  0  0  0
   -1.3737    0.9207   -0.9612 H   0  0  0  0  0  0  0  0  0  0  0  0
   -0.2033   -1.4754    1.0456 H   0  0  0  0  0  0  0  0  0  0  0  0
    0.7600   -0.1395   -0.0318 H   0  0  0  0  0  0  0  0  0  0  0  0
   -0.0349   -1.3053   -0.7686 H   0  0  0  0  0  0  0  0  0  0  0  0
  1  5  1  0  0  0  0
  2  1  1  0  0  0  0
  2  8  1  0  0  0  0
  3  1  1  0  0  0  0
  4  1  1  0  0  0  0
  6  2  1  0  0  0  0
  6  9  1  0  0  0  0
  6 10  1  0  0  0  0
  7  2  1  0  0  0  0
  9 12  1  0  0  0  0
 11  6  1  0  0  0  0
 13  9  1  0  0  0  0
 14  9  1  0  0  0  0
M  END
$$$$
