butane_opt
 OpenBabel08242015413D

 14 13  0  0  0  0  0  0  0  0999 V2000
   -3.9200    0.2382    0.0714 C   0  0  0  0  0  0  0  0  0  0  0  0
   -2.7038   -0.5943    0.0103 C   0  0  0  0  0  0  0  0  0  0  0  0
   -4.8808   -0.3494   -0.1488 H   0  0  0  0  0  0  0  0  0  0  0  0
   -3.8759    0.7407   -0.7642 H   0  0  0  0  0  0  0  0  0  0  0  0
   -3.9813    1.1221    1.0733 H   0  0  0  0  0  0  0  0  0  0  0  0
   -1.4022    0.2006   -0.0634 C   0  0  0  0  0  0  0  0  0  0  0  0
   -2.8008   -1.3334   -0.9258 H   0  0  0  0  0  0  0  0  0  0  0  0
   -2.6050   -1.1643    0.8581 H   0  0  0  0  0  0  0  0  0  0  0  0
   -0.1751   -0.7056    0.0925 C   0  0  0  0  0  0  0  0  0  0  0  0
   -1.3933    0.8290    0.7682 H   0  0  0  0  0  0  0  0  0  0  0  0
   -1.4042    0.9096   -0.9914 H   0  0  0  0  0  0  0  0  0  0  0  0
   -0.2051   -1.4254    1.0174 H   0  0  0  0  0  0  0  0  0  0  0  0
    0.6658   -0.1740   -0.0288 H   0  0  0  0  0  0  0  0  0  0  0  0
   -0.1050   -1.3154   -0.7324 H   0  0  0  0  0  0  0  0  0  0  0  0
  1  5  1  0  0  0  0
  2  1  1  0  0  0  0
  2  8  1  0  0  0  0
  3  1  1  0  0  0  0
  4  1  1  0  0  0  0
  6  2  1  0  0  0  0
  6  9  1  0  0  0  0
  6 10  1  0  0  0  0
  7  2  1  0  0  0  0
  9 12  1  0  0  0  0
 11  6  1  0  0  0  0
 13  9  1  0  0  0  0
 14  9  1  0  0  0  0
M  END
$$$$
