butane_opt
 OpenBabel08242015413D

 14 13  0  0  0  0  0  0  0  0999 V2000
   -3.9564    0.2781   -0.0224 C   0  0  0  0  0  0  0  0  0  0  0  0
   -2.7054   -0.6425    0.0936 C   0  0  0  0  0  0  0  0  0  0  0  0
   -4.8585   -0.2903    0.0570 H   0  0  0  0  0  0  0  0  0  0  0  0
   -3.9538    1.0375   -1.0143 H   0  0  0  0  0  0  0  0  0  0  0  0
   -4.0470    0.8862    0.7498 H   0  0  0  0  0  0  0  0  0  0  0  0
   -1.3831    0.1839    0.0347 C   0  0  0  0  0  0  0  0  0  0  0  0
   -2.7548   -1.2286   -0.6884 H   0  0  0  0  0  0  0  0  0  0  0  0
   -2.6348   -1.4154    1.1339 H   0  0  0  0  0  0  0  0  0  0  0  0
   -0.1627   -0.6865   -0.0167 C   0  0  0  0  0  0  0  0  0  0  0  0
   -1.3459    0.9151    0.9278 H   0  0  0  0  0  0  0  0  0  0  0  0
   -1.3984    0.7526   -0.8201 H   0  0  0  0  0  0  0  0  0  0  0  0
   -0.2383   -1.0878    0.7117 H   0  0  0  0  0  0  0  0  0  0  0  0
    0.7711   -0.0355    0.3147 H   0  0  0  0  0  0  0  0  0  0  0  0
   -0.0730   -1.6019   -1.0440 H   0  0  0  0  0  0  0  0  0  0  0  0
  1  3  1  0  0  0  0
  1  2  1  0  0  0  0
  1  5  1  0  0  0  0
  2  8  1  0  0  0  0
  4  1  1  0  0  0  0
  6  2  1  0  0  0  0
  6 10  1  0  0  0  0
  7  2  1  0  0  0  0
  9  6  1  0  0  0  0
  9 13  1  0  0  0  0
  9 12  1  0  0  0  0
 11  6  1  0  0  0  0
 14  9  1  0  0  0  0
M  END
$$$$
