butane_opt
 OpenBabel08242015413D

 14 13  0  0  0  0  0  0  0  0999 V2000
   -3.9570    0.2560   -0.0237 C   0  0  0  0  0  0  0  0  0  0  0  0
   -2.6942   -0.6122    0.0819 C   0  0  0  0  0  0  0  0  0  0  0  0
   -4.8954   -0.3826    0.1108 H   0  0  0  0  0  0  0  0  0  0  0  0
   -3.8923    0.9698   -0.9425 H   0  0  0  0  0  0  0  0  0  0  0  0
   -4.0009    0.7621    0.7113 H   0  0  0  0  0  0  0  0  0  0  0  0
   -1.4062    0.2184    0.0521 C   0  0  0  0  0  0  0  0  0  0  0  0
   -2.6914   -1.1909   -0.6960 H   0  0  0  0  0  0  0  0  0  0  0  0
   -2.7424   -1.3254    1.0422 H   0  0  0  0  0  0  0  0  0  0  0  0
   -0.1588   -0.7085   -0.0025 C   0  0  0  0  0  0  0  0  0  0  0  0
   -1.3698    0.8670    0.8792 H   0  0  0  0  0  0  0  0  0  0  0  0
   -1.4557    0.8378   -0.8581 H   0  0  0  0  0  0  0  0  0  0  0  0
   -0.0618   -1.0953    0.7349 H   0  0  0  0  0  0  0  0  0  0  0  0
    0.7341   -0.1135    0.1866 H   0  0  0  0  0  0  0  0  0  0  0  0
   -0.0602   -1.6548   -1.0524 H   0  0  0  0  0  0  0  0  0  0  0  0
  1  2  1  0  0  0  0
  1  3  1  0  0  0  0
  1  5  1  0  0  0  0
  2  8  1  0  0  0  0
  4  1  1  0  0  0  0
  6  2  1  0  0  0  0
  6 10  1  0  0  0  0
  7  2  1  0  0  0  0
  9  6  1  0  0  0  0
  9 13  1  0  0  0  0
  9 12  1  0  0  0  0
 11  6  1  0  0  0  0
 14  9  1  0  0  0  0
M  END
$$$$
