14
butane_opt
C  -3.943846   0.256369  -0.033914
C  -2.705790  -0.605075   0.083234
H  -4.887594  -0.382904  -0.059754
H  -3.822271   0.880885  -0.991027
H  -4.077433   0.907308   0.798626
C  -1.407674   0.205834   0.080593
H  -2.708176  -1.240312  -0.713409
H  -2.830005  -1.297917   1.065759
C  -0.144946  -0.692877  -0.032493
H  -1.328333   0.987904   1.042697
H  -1.414379   0.703516  -0.732040
H   0.020808  -1.466268   0.964963
H   0.665195  -0.212547  -0.212010
H  -0.208389  -1.328761  -0.882069
