14
butane_opt
C  -3.970749   0.279348  -0.024297
C  -2.677950  -0.643293   0.111350
H  -4.828736  -0.279841  -0.060592
H  -3.955066   0.980109  -0.972740
H  -4.119584   0.907221   0.831239
C  -1.390349   0.173876   0.035177
H  -2.765715  -1.311163  -0.761195
H  -2.654741  -1.304794   0.996495
C  -0.168912  -0.669051  -0.006580
H  -1.330727   0.812209   0.859476
H  -1.412090   0.767365  -0.803412
H  -0.121481  -1.147523   0.779055
H   0.746088  -0.040037   0.113024
H  -0.095911  -1.533075  -0.958677
