butane_opt
 OpenBabel08242015413D

 14 13  0  0  0  0  0  0  0  0999 V2000
   -3.9770    0.2607   -0.0006 C   0  0  0  0  0  0  0  0  0  0  0  0
   -2.6969   -0.6142    0.0628 C   0  0  0  0  0  0  0  0  0  0  0  0
   -4.8324   -0.2880   -0.0823 H   0  0  0  0  0  0  0  0  0  0  0  0
   -3.9190    0.8872   -0.9353 H   0  0  0  0  0  0  0  0  0  0  0  0
   -4.0822    0.9990    0.8678 H   0  0  0  0  0  0  0  0  0  0  0  0
   -1.3853    0.1683    0.0553 C   0  0  0  0  0  0  0  0  0  0  0  0
   -2.7380   -1.3363   -0.8207 H   0  0  0  0  0  0  0  0  0  0  0  0
   -2.6895   -1.2709    0.9097 H   0  0  0  0  0  0  0  0  0  0  0  0
   -0.1417   -0.6866    0.0020 C   0  0  0  0  0  0  0  0  0  0  0  0
   -1.3712    0.8638    0.9186 H   0  0  0  0  0  0  0  0  0  0  0  0
   -1.4642    0.8388   -0.8687 H   0  0  0  0  0  0  0  0  0  0  0  0
   -0.0355   -1.3817    0.9124 H   0  0  0  0  0  0  0  0  0  0  0  0
    0.7670   -0.0919   -0.1227 H   0  0  0  0  0  0  0  0  0  0  0  0
   -0.2497   -1.2140   -0.7524 H   0  0  0  0  0  0  0  0  0  0  0  0
  1  2  1  0  0  0  0
  1  5  1  0  0  0  0
  2  8  1  0  0  0  0
  3  1  1  0  0  0  0
  4  1  1  0  0  0  0
  6  2  1  0  0  0  0
  6 10  1  0  0  0  0
  7  2  1  0  0  0  0
  9  6  1  0  0  0  0
  9 12  1  0  0  0  0
 11  6  1  0  0  0  0
 13  9  1  0  0  0  0
 14  9  1  0  0  0  0
M  END
$$$$
