14
butane_opt
C  -3.933453   0.272646   0.026752
C  -2.697875  -0.624063   0.016548
H  -4.829434  -0.320351   0.067432
H  -3.985923   0.867087  -0.862076
H  -3.926913   0.951306   0.910106
C  -1.408069   0.178680   0.017531
H  -2.751804  -1.327975  -0.872335
H  -2.718003  -1.206899   0.855518
C  -0.163865  -0.684831   0.039131
H  -1.374785   0.825680   0.838111
H  -1.397858   0.842397  -0.884027
H  -0.118245  -1.434998   1.019664
H   0.733277  -0.094960  -0.062399
H  -0.218516  -1.276987  -0.752015
