butane_opt
 OpenBabel08242015413D

 14 13  0  0  0  0  0  0  0  0999 V2000
   -3.9456    0.2719   -0.0101 C   0  0  0  0  0  0  0  0  0  0  0  0
   -2.7059   -0.6144    0.0841 C   0  0  0  0  0  0  0  0  0  0  0  0
   -4.7942   -0.3180   -0.1034 H   0  0  0  0  0  0  0  0  0  0  0  0
   -3.8387    0.8585   -0.9000 H   0  0  0  0  0  0  0  0  0  0  0  0
   -4.0208    0.9646    0.8583 H   0  0  0  0  0  0  0  0  0  0  0  0
   -1.4035    0.1626    0.0421 C   0  0  0  0  0  0  0  0  0  0  0  0
   -2.7601   -1.2434   -0.7112 H   0  0  0  0  0  0  0  0  0  0  0  0
   -2.7558   -1.2270    0.9615 H   0  0  0  0  0  0  0  0  0  0  0  0
   -0.1566   -0.6893   -0.0038 C   0  0  0  0  0  0  0  0  0  0  0  0
   -1.4228    0.8167    0.8600 H   0  0  0  0  0  0  0  0  0  0  0  0
   -1.3669    0.8242   -0.8870 H   0  0  0  0  0  0  0  0  0  0  0  0
   -0.0963   -1.2184    0.8624 H   0  0  0  0  0  0  0  0  0  0  0  0
    0.7726   -0.0898    0.0276 H   0  0  0  0  0  0  0  0  0  0  0  0
   -0.2155   -1.4022   -0.8815 H   0  0  0  0  0  0  0  0  0  0  0  0
  1  2  1  0  0  0  0
  1  5  1  0  0  0  0
  2  8  1  0  0  0  0
  3  1  1  0  0  0  0
  4  1  1  0  0  0  0
  6  2  1  0  0  0  0
  6 10  1  0  0  0  0
  7  2  1  0  0  0  0
  9 13  1  0  0  0  0
  9  6  1  0  0  0  0
  9 12  1  0  0  0  0
 11  6  1  0  0  0  0
 14  9  1  0  0  0  0
M  END
$$$$
