butane_opt
 OpenBabel08242015413D

 14 13  0  0  0  0  0  0  0  0999 V2000
   -3.9767    0.2692    0.0499 C   0  0  0  0  0  0  0  0  0  0  0  0
   -2.6945   -0.6506   -0.0304 C   0  0  0  0  0  0  0  0  0  0  0  0
   -4.8247   -0.2483    0.0564 H   0  0  0  0  0  0  0  0  0  0  0  0
   -4.0452    0.7781   -0.7597 H   0  0  0  0  0  0  0  0  0  0  0  0
   -3.9767    1.1307    1.0401 H   0  0  0  0  0  0  0  0  0  0  0  0
   -1.3883    0.1833   -0.0102 C   0  0  0  0  0  0  0  0  0  0  0  0
   -2.6646   -1.3415   -0.8883 H   0  0  0  0  0  0  0  0  0  0  0  0
   -2.6450   -1.2503    0.8166 H   0  0  0  0  0  0  0  0  0  0  0  0
   -0.1590   -0.6797    0.0851 C   0  0  0  0  0  0  0  0  0  0  0  0
   -1.3434    0.9138    0.8151 H   0  0  0  0  0  0  0  0  0  0  0  0
   -1.3744    0.8500   -0.9427 H   0  0  0  0  0  0  0  0  0  0  0  0
   -0.0371   -1.5691    1.1150 H   0  0  0  0  0  0  0  0  0  0  0  0
    0.7577   -0.0613   -0.2504 H   0  0  0  0  0  0  0  0  0  0  0  0
   -0.2515   -1.1346   -0.6435 H   0  0  0  0  0  0  0  0  0  0  0  0
  1  3  1  0  0  0  0
  1  5  1  0  0  0  0
  2  6  1  0  0  0  0
  2  1  1  0  0  0  0
  2  8  1  0  0  0  0
  4  1  1  0  0  0  0
  6  9  1  0  0  0  0
  6 10  1  0  0  0  0
  7  2  1  0  0  0  0
  9 12  1  0  0  0  0
 11  6  1  0  0  0  0
 13  9  1  0  0  0  0
 14  9  1  0  0  0  0
M  END
$$$$
