14
butane_opt
C  -3.947871   0.258485  -0.027408
C  -2.725468  -0.610403   0.063740
H  -4.874043  -0.311830   0.041653
H  -3.968043   0.932635  -0.924935
H  -3.941029   0.910461   0.829946
C  -1.387811   0.188859   0.076654
H  -2.669440  -1.332224  -0.796905
H  -2.858977  -1.215056   0.970104
C  -0.140602  -0.707230  -0.003076
H  -1.395531   0.943178   0.981431
H  -1.448976   0.808998  -0.844774
H  -0.017170  -1.381630   0.905938
H   0.753239  -0.109826  -0.271088
H  -0.186811  -1.266709  -0.767057
