14
butane_opt
C  -3.913503   0.251861   0.052230
C  -2.714074  -0.584972  -0.020129
H  -4.887791  -0.428560  -0.005425
H  -3.954793   0.758325  -0.781969
H  -3.915219   0.997830   0.982917
C  -1.413718   0.198890  -0.016947
H  -2.716523  -1.314392  -0.896823
H  -2.672171  -1.167381   0.888492
C  -0.167725  -0.717088   0.074379
H  -1.450747   0.951014   0.880490
H  -1.352131   0.809790  -0.878782
H  -0.070751  -1.583586   1.158100
H   0.789671  -0.092085  -0.291570
H  -0.267902  -1.195599  -0.669321
