butane_opt
 OpenBabel08242015413D

 14 13  0  0  0  0  0  0  0  0999 V2000
   -3.9349    0.2832    0.0561 C   0  0  0  0  0  0  0  0  0  0  0  0
   -2.6968   -0.6267   -0.0128 C   0  0  0  0  0  0  0  0  0  0  0  0
   -4.9071   -0.3761    0.0431 H   0  0  0  0  0  0  0  0  0  0  0  0
   -3.9207    0.7956   -0.7951 H   0  0  0  0  0  0  0  0  0  0  0  0
   -3.9280    1.0983    1.0074 H   0  0  0  0  0  0  0  0  0  0  0  0
   -1.4000    0.1567   -0.0192 C   0  0  0  0  0  0  0  0  0  0  0  0
   -2.6846   -1.3532   -0.9269 H   0  0  0  0  0  0  0  0  0  0  0  0
   -2.6421   -1.1796    0.8141 H   0  0  0  0  0  0  0  0  0  0  0  0
   -0.1719   -0.6784    0.0866 C   0  0  0  0  0  0  0  0  0  0  0  0
   -1.3912    0.7498    0.7642 H   0  0  0  0  0  0  0  0  0  0  0  0
   -1.3734    0.8849   -0.9504 H   0  0  0  0  0  0  0  0  0  0  0  0
   -0.1381   -1.4172    1.0541 H   0  0  0  0  0  0  0  0  0  0  0  0
    0.7095   -0.0833   -0.1468 H   0  0  0  0  0  0  0  0  0  0  0  0
   -0.2957   -1.2172   -0.7180 H   0  0  0  0  0  0  0  0  0  0  0  0
  1  5  1  0  0  0  0
  2  1  1  0  0  0  0
  2  8  1  0  0  0  0
  3  1  1  0  0  0  0
  4  1  1  0  0  0  0
  6  2  1  0  0  0  0
  6  9  1  0  0  0  0
  6 10  1  0  0  0  0
  7  2  1  0  0  0  0
  9 12  1  0  0  0  0
 11  6  1  0  0  0  0
 13  9  1  0  0  0  0
 14  9  1  0  0  0  0
M  END
$$$$
