butane_opt
 OpenBabel08242015413D

 14 13  0  0  0  0  0  0  0  0999 V2000
   -3.9355    0.2629   -0.0088 C   0  0  0  0  0  0  0  0  0  0  0  0
   -2.6974   -0.6088    0.0675 C   0  0  0  0  0  0  0  0  0  0  0  0
   -4.8690   -0.3645    0.0903 H   0  0  0  0  0  0  0  0  0  0  0  0
   -3.9742    0.9380   -0.9455 H   0  0  0  0  0  0  0  0  0  0  0  0
   -3.8744    0.8200    0.7657 H   0  0  0  0  0  0  0  0  0  0  0  0
   -1.4139    0.1916    0.0358 C   0  0  0  0  0  0  0  0  0  0  0  0
   -2.6481   -1.2713   -0.7709 H   0  0  0  0  0  0  0  0  0  0  0  0
   -2.7470   -1.3068    0.9775 H   0  0  0  0  0  0  0  0  0  0  0  0
   -0.1622   -0.6953    0.0060 C   0  0  0  0  0  0  0  0  0  0  0  0
   -1.3907    0.9388    0.9280 H   0  0  0  0  0  0  0  0  0  0  0  0
   -1.4477    0.7948   -0.8272 H   0  0  0  0  0  0  0  0  0  0  0  0
   -0.1497   -1.2500    0.8714 H   0  0  0  0  0  0  0  0  0  0  0  0
    0.7090   -0.1130    0.0586 H   0  0  0  0  0  0  0  0  0  0  0  0
   -0.1260   -1.4697   -0.9305 H   0  0  0  0  0  0  0  0  0  0  0  0
  1  2  1  0  0  0  0
  1  3  1  0  0  0  0
  1  5  1  0  0  0  0
  2  8  1  0  0  0  0
  4  1  1  0  0  0  0
  6  2  1  0  0  0  0
  6 10  1  0  0  0  0
  7  2  1  0  0  0  0
  9  6  1  0  0  0  0
  9 13  1  0  0  0  0
  9 12  1  0  0  0  0
 11  6  1  0  0  0  0
 14  9  1  0  0  0  0
M  END
$$$$
