14
butane_opt
C  -3.942978   0.265671   0.078594
C  -2.725533  -0.630533  -0.014863
H  -4.828095  -0.324059   0.070091
H  -4.108575   0.807518  -0.780033
H  -3.857941   1.066242   1.037228
C  -1.396061   0.199396  -0.070824
H  -2.785361  -1.301763  -0.838604
H  -2.766142  -1.286054   0.868181
C  -0.132331  -0.697387   0.085344
H  -1.476615   0.861686   0.729226
H  -1.316654   0.917478  -1.065883
H  -0.292142  -1.270804   1.021050
H   0.733929  -0.161346   0.282949
H   0.036733  -1.434417  -0.823445
