butane_opt
 OpenBabel08242015413D

 14 13  0  0  0  0  0  0  0  0999 V2000
   -3.9356    0.2463    0.0601 C   0  0  0  0  0  0  0  0  0  0  0  0
   -2.6967   -0.5894   -0.0079 C   0  0  0  0  0  0  0  0  0  0  0  0
   -4.8843   -0.4338    0.2800 H   0  0  0  0  0  0  0  0  0  0  0  0
   -3.9467    0.9351   -0.8984 H   0  0  0  0  0  0  0  0  0  0  0  0
   -3.8567    0.8141    0.8655 H   0  0  0  0  0  0  0  0  0  0  0  0
   -1.4137    0.1986   -0.0291 C   0  0  0  0  0  0  0  0  0  0  0  0
   -2.7281   -1.3413   -0.9154 H   0  0  0  0  0  0  0  0  0  0  0  0
   -2.6121   -1.0853    0.7370 H   0  0  0  0  0  0  0  0  0  0  0  0
   -0.1623   -0.7097    0.0728 C   0  0  0  0  0  0  0  0  0  0  0  0
   -1.5016    0.9133    0.8226 H   0  0  0  0  0  0  0  0  0  0  0  0
   -1.3759    0.8441   -0.9319 H   0  0  0  0  0  0  0  0  0  0  0  0
   -0.2035   -1.3675    1.0424 H   0  0  0  0  0  0  0  0  0  0  0  0
    0.7329   -0.1561    0.0589 H   0  0  0  0  0  0  0  0  0  0  0  0
   -0.1340   -1.3563   -0.7737 H   0  0  0  0  0  0  0  0  0  0  0  0
  1  3  1  0  0  0  0
  1  5  1  0  0  0  0
  2  1  1  0  0  0  0
  2  8  1  0  0  0  0
  4  1  1  0  0  0  0
  6  2  1  0  0  0  0
  6  9  1  0  0  0  0
  6 10  1  0  0  0  0
  7  2  1  0  0  0  0
  9 12  1  0  0  0  0
 11  6  1  0  0  0  0
 13  9  1  0  0  0  0
 14  9  1  0  0  0  0
M  END
$$$$
