14
butane_opt
C  -3.935599   0.246330   0.060132
C  -2.696735  -0.589436  -0.007880
H  -4.884279  -0.433844   0.280042
H  -3.946667   0.935089  -0.898356
H  -3.856680   0.814109   0.865488
C  -1.413707   0.198638  -0.029072
H  -2.728053  -1.341251  -0.915395
H  -2.612132  -1.085277   0.737028
C  -0.162281  -0.709725   0.072807
H  -1.501583   0.913264   0.822597
H  -1.375883   0.844148  -0.931911
H  -0.203529  -1.367513   1.042366
H   0.732895  -0.156073   0.058924
H  -0.134014  -1.356268  -0.773675
