14
butane_opt
C  -3.976709   0.269250   0.049908
C  -2.694497  -0.650567  -0.030441
H  -4.824683  -0.248342   0.056402
H  -4.045220   0.778129  -0.759689
H  -3.976675   1.130660   1.040096
C  -1.388306   0.183294  -0.010207
H  -2.664614  -1.341487  -0.888346
H  -2.645018  -1.250347   0.816635
C  -0.159027  -0.679691   0.085147
H  -1.343425   0.913845   0.815109
H  -1.374408   0.850050  -0.942654
H  -0.037137  -1.569078   1.115039
H   0.757723  -0.061254  -0.250403
H  -0.251529  -1.134551  -0.643509
