14
butane_opt
C  -3.935698   0.273134   0.030762
C  -2.694413  -0.628311   0.012512
H  -4.846753  -0.318812   0.059888
H  -3.985314   0.875953  -0.851419
H  -3.946005   1.013057   0.943615
C  -1.402014   0.172243  -0.000778
H  -2.692469  -1.350727  -0.851188
H  -2.671329  -1.216846   0.858921
C  -0.179216  -0.681639   0.049864
H  -1.328466   0.882327   0.862654
H  -1.397144   0.756091  -0.866670
H  -0.147512  -1.435587   1.049938
H   0.712318  -0.103285  -0.113809
H  -0.184206  -1.195696  -0.737393
