14
butane_opt
C  -3.962468   0.266593   0.066300
C  -2.705462  -0.617609   0.002705
H  -4.810267  -0.293505   0.041032
H  -3.973196   0.859964  -0.767216
H  -3.942046   1.000969   0.971288
C  -1.385753   0.182901  -0.070939
H  -2.840970  -1.341680  -0.862455
H  -2.693441  -1.261683   0.874180
C  -0.149714  -0.701280   0.089990
H  -1.380730   0.844422   0.787022
H  -1.416667   0.878886  -0.975585
H  -0.298619  -1.205354   0.921054
H   0.806031  -0.102594   0.168684
H  -0.038734  -1.408832  -0.782882
