14
butane_opt
C  -3.964455   0.275549   0.023449
C  -2.697721  -0.644493  -0.003597
H  -4.852830  -0.278289   0.277998
H  -4.086392   1.144383  -1.019385
H  -3.868944   0.817863   0.842000
C  -1.387366   0.170229   0.024475
H  -2.705808  -1.271112  -0.812011
H  -2.713124  -1.329177   0.939471
C  -0.154347  -0.680175   0.039302
H  -1.424664   0.930400   0.942782
H  -1.399816   0.740246  -0.869367
H  -0.112364  -1.249564   0.909954
H   0.771731  -0.041297   0.073200
H  -0.197518  -1.371560  -0.867662
