butane_opt
 OpenBabel08242015413D

 14 13  0  0  0  0  0  0  0  0999 V2000
   -3.9771    0.2776   -0.0193 C   0  0  0  0  0  0  0  0  0  0  0  0
   -2.7101   -0.6243    0.0558 C   0  0  0  0  0  0  0  0  0  0  0  0
   -4.8616   -0.2918    0.0617 H   0  0  0  0  0  0  0  0  0  0  0  0
   -4.0155    0.9466   -0.9602 H   0  0  0  0  0  0  0  0  0  0  0  0
   -4.0015    0.8878    0.7747 H   0  0  0  0  0  0  0  0  0  0  0  0
   -1.3853    0.1659    0.0727 C   0  0  0  0  0  0  0  0  0  0  0  0
   -2.6712   -1.2768   -0.7456 H   0  0  0  0  0  0  0  0  0  0  0  0
   -2.6606   -1.3170    0.9456 H   0  0  0  0  0  0  0  0  0  0  0  0
   -0.1513   -0.6796   -0.0191 C   0  0  0  0  0  0  0  0  0  0  0  0
   -1.2915    0.9275    0.9760 H   0  0  0  0  0  0  0  0  0  0  0  0
   -1.4286    0.6831   -0.7602 H   0  0  0  0  0  0  0  0  0  0  0  0
   -0.0204   -1.3935    0.9115 H   0  0  0  0  0  0  0  0  0  0  0  0
    0.7801   -0.0762   -0.0886 H   0  0  0  0  0  0  0  0  0  0  0  0
   -0.1778   -1.2151   -0.7442 H   0  0  0  0  0  0  0  0  0  0  0  0
  1  2  1  0  0  0  0
  1  3  1  0  0  0  0
  1  5  1  0  0  0  0
  2  6  1  0  0  0  0
  2  8  1  0  0  0  0
  4  1  1  0  0  0  0
  6 10  1  0  0  0  0
  7  2  1  0  0  0  0
  9  6  1  0  0  0  0
  9 12  1  0  0  0  0
 11  6  1  0  0  0  0
 13  9  1  0  0  0  0
 14  9  1  0  0  0  0
M  END
$$$$
