butane_opt
 OpenBabel08242015413D

 14 13  0  0  0  0  0  0  0  0999 V2000
   -3.9290    0.2403    0.0519 C   0  0  0  0  0  0  0  0  0  0  0  0
   -2.7100   -0.5800    0.0408 C   0  0  0  0  0  0  0  0  0  0  0  0
   -4.9111   -0.3916   -0.2512 H   0  0  0  0  0  0  0  0  0  0  0  0
   -3.8321    0.6675   -0.7193 H   0  0  0  0  0  0  0  0  0  0  0  0
   -3.9919    1.0900    1.0052 H   0  0  0  0  0  0  0  0  0  0  0  0
   -1.4119    0.1978   -0.0421 C   0  0  0  0  0  0  0  0  0  0  0  0
   -2.7240   -1.2330   -0.8300 H   0  0  0  0  0  0  0  0  0  0  0  0
   -2.6405   -1.2130    0.9095 H   0  0  0  0  0  0  0  0  0  0  0  0
   -0.1687   -0.7175    0.0468 C   0  0  0  0  0  0  0  0  0  0  0  0
   -1.4874    0.8465    0.8127 H   0  0  0  0  0  0  0  0  0  0  0  0
   -1.3731    0.8259   -0.9507 H   0  0  0  0  0  0  0  0  0  0  0  0
   -0.1335   -1.3581    0.9945 H   0  0  0  0  0  0  0  0  0  0  0  0
    0.7376   -0.1522    0.0242 H   0  0  0  0  0  0  0  0  0  0  0  0
   -0.0240   -1.2574   -0.7112 H   0  0  0  0  0  0  0  0  0  0  0  0
  1  5  1  0  0  0  0
  2  1  1  0  0  0  0
  2  8  1  0  0  0  0
  3  1  1  0  0  0  0
  4  1  1  0  0  0  0
  6  2  1  0  0  0  0
  6  9  1  0  0  0  0
  6 10  1  0  0  0  0
  7  2  1  0  0  0  0
  9 12  1  0  0  0  0
 11  6  1  0  0  0  0
 13  9  1  0  0  0  0
 14  9  1  0  0  0  0
M  END
$$$$
