butane_opt
 OpenBabel08242015413D

 14 13  0  0  0  0  0  0  0  0999 V2000
   -3.9912    0.2805    0.0555 C   0  0  0  0  0  0  0  0  0  0  0  0
   -2.6838   -0.6373    0.0227 C   0  0  0  0  0  0  0  0  0  0  0  0
   -4.8832   -0.2953    0.0688 H   0  0  0  0  0  0  0  0  0  0  0  0
   -4.0604    0.9000   -0.8510 H   0  0  0  0  0  0  0  0  0  0  0  0
   -3.9239    0.9195    0.9626 H   0  0  0  0  0  0  0  0  0  0  0  0
   -1.3914    0.1701   -0.0534 C   0  0  0  0  0  0  0  0  0  0  0  0
   -2.7490   -1.3740   -0.8939 H   0  0  0  0  0  0  0  0  0  0  0  0
   -2.6655   -1.2094    0.9056 H   0  0  0  0  0  0  0  0  0  0  0  0
   -0.1447   -0.6834    0.0723 C   0  0  0  0  0  0  0  0  0  0  0  0
   -1.3153    0.8085    0.7581 H   0  0  0  0  0  0  0  0  0  0  0  0
   -1.3965    0.8875   -1.0375 H   0  0  0  0  0  0  0  0  0  0  0  0
   -0.2753   -1.1183    0.8804 H   0  0  0  0  0  0  0  0  0  0  0  0
    0.7797   -0.0867    0.2929 H   0  0  0  0  0  0  0  0  0  0  0  0
   -0.0029   -1.4624   -0.8253 H   0  0  0  0  0  0  0  0  0  0  0  0
  1  3  1  0  0  0  0
  1  5  1  0  0  0  0
  2  1  1  0  0  0  0
  2  8  1  0  0  0  0
  4  1  1  0  0  0  0
  6  2  1  0  0  0  0
  6  9  1  0  0  0  0
  6 10  1  0  0  0  0
  7  2  1  0  0  0  0
  9 13  1  0  0  0  0
  9 12  1  0  0  0  0
 11  6  1  0  0  0  0
 14  9  1  0  0  0  0
M  END
$$$$
