14
butane_opt
C  -3.951327   0.235035   0.058646
C  -2.711474  -0.597107  -0.032608
H  -4.850893  -0.366207   0.267617
H  -4.120386   1.005746  -0.904186
H  -3.848542   0.866032   0.866224
C  -1.408259   0.215593  -0.003793
H  -2.783672  -1.325758  -0.907273
H  -2.765218  -1.158368   0.797899
C  -0.143591  -0.721622   0.080764
H  -1.346575   0.846928   0.844120
H  -1.361093   0.928911  -0.944588
H  -0.076236  -1.371160   0.989797
H   0.739578  -0.130326  -0.025979
H  -0.026872  -1.354050  -0.785805
