butane_opt
 OpenBabel08242015413D

 14 13  0  0  0  0  0  0  0  0999 V2000
   -3.9344    0.2529    0.0242 C   0  0  0  0  0  0  0  0  0  0  0  0
   -2.7081   -0.5756    0.0480 C   0  0  0  0  0  0  0  0  0  0  0  0
   -4.8667   -0.3826   -0.1436 H   0  0  0  0  0  0  0  0  0  0  0  0
   -3.8230    0.6635   -0.7801 H   0  0  0  0  0  0  0  0  0  0  0  0
   -3.9926    0.9686    0.9508 H   0  0  0  0  0  0  0  0  0  0  0  0
   -1.4212    0.1981   -0.0088 C   0  0  0  0  0  0  0  0  0  0  0  0
   -2.7674   -1.2152   -0.7948 H   0  0  0  0  0  0  0  0  0  0  0  0
   -2.6579   -1.2486    0.9463 H   0  0  0  0  0  0  0  0  0  0  0  0
   -0.1656   -0.7136    0.0273 C   0  0  0  0  0  0  0  0  0  0  0  0
   -1.3829    0.8340    0.8599 H   0  0  0  0  0  0  0  0  0  0  0  0
   -1.3972    0.7741   -0.8982 H   0  0  0  0  0  0  0  0  0  0  0  0
   -0.0730   -1.4046    0.9587 H   0  0  0  0  0  0  0  0  0  0  0  0
    0.7560   -0.1120    0.0568 H   0  0  0  0  0  0  0  0  0  0  0  0
   -0.0751   -1.2875   -0.7814 H   0  0  0  0  0  0  0  0  0  0  0  0
  1  2  1  0  0  0  0
  1  5  1  0  0  0  0
  2  8  1  0  0  0  0
  3  1  1  0  0  0  0
  4  1  1  0  0  0  0
  6  9  1  0  0  0  0
  6  2  1  0  0  0  0
  6 10  1  0  0  0  0
  7  2  1  0  0  0  0
  9 13  1  0  0  0  0
  9 12  1  0  0  0  0
 11  6  1  0  0  0  0
 14  9  1  0  0  0  0
M  END
$$$$
