butane_opt
 OpenBabel08242015413D

 14 13  0  0  0  0  0  0  0  0999 V2000
   -3.9590    0.2605    0.0447 C   0  0  0  0  0  0  0  0  0  0  0  0
   -2.7053   -0.6139   -0.0190 C   0  0  0  0  0  0  0  0  0  0  0  0
   -4.8894   -0.3978    0.0452 H   0  0  0  0  0  0  0  0  0  0  0  0
   -4.0574    0.7894   -0.7657 H   0  0  0  0  0  0  0  0  0  0  0  0
   -3.9000    1.0805    1.0666 H   0  0  0  0  0  0  0  0  0  0  0  0
   -1.3991    0.2035   -0.0064 C   0  0  0  0  0  0  0  0  0  0  0  0
   -2.7170   -1.3420   -0.9249 H   0  0  0  0  0  0  0  0  0  0  0  0
   -2.7089   -1.1500    0.7910 H   0  0  0  0  0  0  0  0  0  0  0  0
   -0.1442   -0.7061    0.0757 C   0  0  0  0  0  0  0  0  0  0  0  0
   -1.3952    0.8294    0.8053 H   0  0  0  0  0  0  0  0  0  0  0  0
   -1.2684    0.8059   -0.9124 H   0  0  0  0  0  0  0  0  0  0  0  0
   -0.0937   -1.5627    1.1454 H   0  0  0  0  0  0  0  0  0  0  0  0
    0.7344   -0.1507   -0.2921 H   0  0  0  0  0  0  0  0  0  0  0  0
   -0.2146   -1.1027   -0.6272 H   0  0  0  0  0  0  0  0  0  0  0  0
  1  3  1  0  0  0  0
  1  5  1  0  0  0  0
  2  6  1  0  0  0  0
  2  1  1  0  0  0  0
  2  8  1  0  0  0  0
  4  1  1  0  0  0  0
  6  9  1  0  0  0  0
  6 10  1  0  0  0  0
  7  2  1  0  0  0  0
  9 12  1  0  0  0  0
 11  6  1  0  0  0  0
 13  9  1  0  0  0  0
 14  9  1  0  0  0  0
M  END
$$$$
