14
butane_opt
C  -3.959808   0.276865   0.072269
C  -2.690694  -0.641479  -0.052994
H  -4.778421  -0.222907   0.347920
H  -4.187710   1.000926  -0.888092
H  -3.803741   0.896468   0.907799
C  -1.392537   0.167060  -0.017991
H  -2.705964  -1.372018  -0.948251
H  -2.702561  -1.229002   0.810647
C  -0.180962  -0.676985   0.083187
H  -1.406630   0.866011   0.780062
H  -1.225431   0.833021  -0.950644
H  -0.263854  -1.364428   1.057280
H   0.806129  -0.063547   0.028399
H  -0.078496  -1.302073  -0.726409
