butane_opt
 OpenBabel08242015413D

 14 13  0  0  0  0  0  0  0  0999 V2000
   -3.9572    0.2750    0.0570 C   0  0  0  0  0  0  0  0  0  0  0  0
   -2.7107   -0.6170    0.0227 C   0  0  0  0  0  0  0  0  0  0  0  0
   -4.8505   -0.2378   -0.1606 H   0  0  0  0  0  0  0  0  0  0  0  0
   -3.8693    0.6536   -0.7301 H   0  0  0  0  0  0  0  0  0  0  0  0
   -4.0204    1.1496    1.0326 H   0  0  0  0  0  0  0  0  0  0  0  0
   -1.4007    0.1722   -0.0447 C   0  0  0  0  0  0  0  0  0  0  0  0
   -2.7817   -1.3910   -0.8889 H   0  0  0  0  0  0  0  0  0  0  0  0
   -2.6745   -1.2407    0.8696 H   0  0  0  0  0  0  0  0  0  0  0  0
   -0.1483   -0.6929    0.0630 C   0  0  0  0  0  0  0  0  0  0  0  0
   -1.4053    0.8021    0.8073 H   0  0  0  0  0  0  0  0  0  0  0  0
   -1.3073    0.8446   -0.9601 H   0  0  0  0  0  0  0  0  0  0  0  0
   -0.1778   -1.4577    1.0735 H   0  0  0  0  0  0  0  0  0  0  0  0
    0.8183   -0.0363   -0.0377 H   0  0  0  0  0  0  0  0  0  0  0  0
   -0.1684   -1.1923   -0.7059 H   0  0  0  0  0  0  0  0  0  0  0  0
  1  5  1  0  0  0  0
  2  1  1  0  0  0  0
  2  8  1  0  0  0  0
  3  1  1  0  0  0  0
  4  1  1  0  0  0  0
  6  2  1  0  0  0  0
  6  9  1  0  0  0  0
  6 10  1  0  0  0  0
  7  2  1  0  0  0  0
  9 12  1  0  0  0  0
 11  6  1  0  0  0  0
 13  9  1  0  0  0  0
 14  9  1  0  0  0  0
M  END
$$$$
