14
butane_opt
C  -3.968481   0.283383  -0.017433
C  -2.685096  -0.653185   0.087499
H  -4.853135  -0.303417   0.066127
H  -3.998134   1.074216  -0.999180
H  -3.975043   0.798160   0.716405
C  -1.401343   0.178457   0.038947
H  -2.641729  -1.221370  -0.707032
H  -2.741903  -1.391777   1.048737
C  -0.152900  -0.667854  -0.007301
H  -1.365095   0.910088   0.970625
H  -1.368655   0.758410  -0.830105
H  -0.173035  -1.073168   0.792422
H   0.705955  -0.089111   0.177530
H  -0.130094  -1.629201  -1.063935
