butane_opt
 OpenBabel08242015413D

 14 13  0  0  0  0  0  0  0  0999 V2000
   -3.9582    0.2789   -0.0444 C   0  0  0  0  0  0  0  0  0  0  0  0
   -2.7141   -0.6385    0.1209 C   0  0  0  0  0  0  0  0  0  0  0  0
   -4.7923   -0.2562   -0.1936 H   0  0  0  0  0  0  0  0  0  0  0  0
   -3.9104    0.7917   -0.9367 H   0  0  0  0  0  0  0  0  0  0  0  0
   -4.1254    0.9735    0.8378 H   0  0  0  0  0  0  0  0  0  0  0  0
   -1.3798    0.1885    0.0656 C   0  0  0  0  0  0  0  0  0  0  0  0
   -2.6379   -1.2240   -0.6148 H   0  0  0  0  0  0  0  0  0  0  0  0
   -2.7559   -1.3069    1.0609 H   0  0  0  0  0  0  0  0  0  0  0  0
   -0.1541   -0.6926   -0.0368 C   0  0  0  0  0  0  0  0  0  0  0  0
   -1.3088    0.9199    0.9878 H   0  0  0  0  0  0  0  0  0  0  0  0
   -1.4151    0.7408   -0.8060 H   0  0  0  0  0  0  0  0  0  0  0  0
   -0.1838   -1.2682    0.8336 H   0  0  0  0  0  0  0  0  0  0  0  0
    0.7493   -0.1023   -0.0723 H   0  0  0  0  0  0  0  0  0  0  0  0
   -0.1699   -1.3710   -0.9244 H   0  0  0  0  0  0  0  0  0  0  0  0
  1  2  1  0  0  0  0
  1  5  1  0  0  0  0
  2  8  1  0  0  0  0
  3  1  1  0  0  0  0
  4  1  1  0  0  0  0
  6  2  1  0  0  0  0
  6 10  1  0  0  0  0
  7  2  1  0  0  0  0
  9  6  1  0  0  0  0
  9 12  1  0  0  0  0
 11  6  1  0  0  0  0
 13  9  1  0  0  0  0
 14  9  1  0  0  0  0
M  END
$$$$
