14
butane_opt
C  -3.952267   0.281475   0.004226
C  -2.697540  -0.653169   0.065925
H  -4.830655  -0.282484   0.090756
H  -3.991432   0.950898  -0.945186
H  -4.048181   0.952957   0.812133
C  -1.377806   0.176582   0.023798
H  -2.699423  -1.306157  -0.747408
H  -2.745257  -1.268784   0.966279
C  -0.163980  -0.678154   0.008068
H  -1.413242   0.881991   0.855552
H  -1.365784   0.887326  -0.898456
H  -0.300594  -1.210173   0.855738
H   0.778414  -0.091587   0.165836
H  -0.106945  -1.514089  -0.955415
