14
butane_opt
C  -3.958229   0.278906  -0.044388
C  -2.714103  -0.638541   0.120903
H  -4.792272  -0.256243  -0.193565
H  -3.910387   0.791683  -0.936732
H  -4.125351   0.973512   0.837768
C  -1.379797   0.188496   0.065570
H  -2.637871  -1.224043  -0.614782
H  -2.755857  -1.306881   1.060918
C  -0.154063  -0.692556  -0.036824
H  -1.308792   0.919881   0.987846
H  -1.415063   0.740829  -0.806021
H  -0.183835  -1.268193   0.833569
H   0.749321  -0.102268  -0.072299
H  -0.169941  -1.371001  -0.924432
