butane_opt
 OpenBabel08242015413D

 14 13  0  0  0  0  0  0  0  0999 V2000
   -3.9617    0.2796   -0.0245 C   0  0  0  0  0  0  0  0  0  0  0  0
   -2.7093   -0.6312    0.1056 C   0  0  0  0  0  0  0  0  0  0  0  0
   -4.8492   -0.3013    0.0918 H   0  0  0  0  0  0  0  0  0  0  0  0
   -3.9837    0.9839   -0.9996 H   0  0  0  0  0  0  0  0  0  0  0  0
   -4.0403    0.8893    0.7765 H   0  0  0  0  0  0  0  0  0  0  0  0
   -1.3915    0.1722    0.0224 C   0  0  0  0  0  0  0  0  0  0  0  0
   -2.6757   -1.2505   -0.7339 H   0  0  0  0  0  0  0  0  0  0  0  0
   -2.8115   -1.3584    1.0329 H   0  0  0  0  0  0  0  0  0  0  0  0
   -0.1474   -0.6975   -0.0096 C   0  0  0  0  0  0  0  0  0  0  0  0
   -1.2758    0.9795    0.9449 H   0  0  0  0  0  0  0  0  0  0  0  0
   -1.4160    0.7538   -0.8024 H   0  0  0  0  0  0  0  0  0  0  0  0
   -0.2295   -1.0814    0.7078 H   0  0  0  0  0  0  0  0  0  0  0  0
    0.8337   -0.0476    0.2104 H   0  0  0  0  0  0  0  0  0  0  0  0
   -0.0568   -1.5078   -0.9292 H   0  0  0  0  0  0  0  0  0  0  0  0
  1  3  1  0  0  0  0
  1  2  1  0  0  0  0
  1  5  1  0  0  0  0
  2  8  1  0  0  0  0
  4  1  1  0  0  0  0
  6  2  1  0  0  0  0
  6 10  1  0  0  0  0
  7  2  1  0  0  0  0
  9  6  1  0  0  0  0
  9 13  1  0  0  0  0
  9 12  1  0  0  0  0
 11  6  1  0  0  0  0
 14  9  1  0  0  0  0
M  END
$$$$
