butane_opt
 OpenBabel08242015413D

 14 13  0  0  0  0  0  0  0  0999 V2000
   -3.9124    0.2492    0.0748 C   0  0  0  0  0  0  0  0  0  0  0  0
   -2.6978   -0.6025   -0.0050 C   0  0  0  0  0  0  0  0  0  0  0  0
   -4.8558   -0.3473    0.0592 H   0  0  0  0  0  0  0  0  0  0  0  0
   -4.0148    0.7611   -0.7023 H   0  0  0  0  0  0  0  0  0  0  0  0
   -3.9085    0.8992    0.9483 H   0  0  0  0  0  0  0  0  0  0  0  0
   -1.4234    0.2207   -0.0759 C   0  0  0  0  0  0  0  0  0  0  0  0
   -2.8006   -1.2784   -0.8764 H   0  0  0  0  0  0  0  0  0  0  0  0
   -2.7308   -1.1974    0.8808 H   0  0  0  0  0  0  0  0  0  0  0  0
   -0.1600   -0.7183    0.0782 C   0  0  0  0  0  0  0  0  0  0  0  0
   -1.4983    0.8462    0.7847 H   0  0  0  0  0  0  0  0  0  0  0  0
   -1.3991    0.8855   -0.9882 H   0  0  0  0  0  0  0  0  0  0  0  0
   -0.3046   -1.2964    1.0022 H   0  0  0  0  0  0  0  0  0  0  0  0
    0.7435   -0.1390    0.2635 H   0  0  0  0  0  0  0  0  0  0  0  0
    0.0721   -1.4108   -0.8030 H   0  0  0  0  0  0  0  0  0  0  0  0
  1  5  1  0  0  0  0
  2  1  1  0  0  0  0
  2  8  1  0  0  0  0
  3  1  1  0  0  0  0
  4  1  1  0  0  0  0
  6  2  1  0  0  0  0
  6  9  1  0  0  0  0
  6 10  1  0  0  0  0
  7  2  1  0  0  0  0
  9 13  1  0  0  0  0
  9 12  1  0  0  0  0
 11  6  1  0  0  0  0
 14  9  1  0  0  0  0
M  END
$$$$
