14
butane_opt
C  -3.932479   0.236797   0.049712
C  -2.700745  -0.589553   0.027713
H  -4.835194  -0.340492   0.089094
H  -3.958022   0.864958  -0.832866
H  -3.921029   0.816318   0.896066
C  -1.429063   0.219130  -0.037658
H  -2.761097  -1.344845  -0.895924
H  -2.629770  -1.141704   0.837389
C  -0.149144  -0.710557   0.062428
H  -1.460070   0.841895   0.749568
H  -1.306285   0.875409  -0.917262
H  -0.188683  -1.300549   0.940082
H   0.647204  -0.166975   0.174614
H  -0.054405  -1.466053  -0.845052
