butane_opt
 OpenBabel08242015413D

 14 13  0  0  0  0  0  0  0  0999 V2000
   -3.9372    0.2894    0.0569 C   0  0  0  0  0  0  0  0  0  0  0  0
   -2.6854   -0.6264   -0.0311 C   0  0  0  0  0  0  0  0  0  0  0  0
   -4.8124   -0.2765    0.2937 H   0  0  0  0  0  0  0  0  0  0  0  0
   -4.1371    0.9526   -0.8442 H   0  0  0  0  0  0  0  0  0  0  0  0
   -3.8470    0.8430    0.8559 H   0  0  0  0  0  0  0  0  0  0  0  0
   -1.3986    0.1411   -0.0258 C   0  0  0  0  0  0  0  0  0  0  0  0
   -2.7899   -1.3018   -0.8879 H   0  0  0  0  0  0  0  0  0  0  0  0
   -2.6020   -1.2842    0.8400 H   0  0  0  0  0  0  0  0  0  0  0  0
   -0.1823   -0.6671    0.0846 C   0  0  0  0  0  0  0  0  0  0  0  0
   -1.4960    0.8390    0.8338 H   0  0  0  0  0  0  0  0  0  0  0  0
   -1.3646    0.7283   -0.9248 H   0  0  0  0  0  0  0  0  0  0  0  0
   -0.2479   -1.2784    0.9682 H   0  0  0  0  0  0  0  0  0  0  0  0
    0.7695    0.0269    0.0601 H   0  0  0  0  0  0  0  0  0  0  0  0
   -0.0814   -1.3422   -0.7928 H   0  0  0  0  0  0  0  0  0  0  0  0
  1  3  1  0  0  0  0
  1  5  1  0  0  0  0
  2  6  1  0  0  0  0
  2  1  1  0  0  0  0
  2  8  1  0  0  0  0
  4  1  1  0  0  0  0
  6  9  1  0  0  0  0
  6 10  1  0  0  0  0
  7  2  1  0  0  0  0
  9 12  1  0  0  0  0
 11  6  1  0  0  0  0
 13  9  1  0  0  0  0
 14  9  1  0  0  0  0
M  END
$$$$
