14
butane_opt
C  -3.912426   0.249154   0.074813
C  -2.697768  -0.602502  -0.005045
H  -4.855812  -0.347293   0.059168
H  -4.014808   0.761064  -0.702276
H  -3.908490   0.899227   0.948262
C  -1.423371   0.220705  -0.075948
H  -2.800605  -1.278377  -0.876376
H  -2.730780  -1.197414   0.880793
C  -0.159968  -0.718272   0.078180
H  -1.498330   0.846166   0.784727
H  -1.399084   0.885463  -0.988191
H  -0.304633  -1.296391   1.002211
H   0.743486  -0.139048   0.263495
H   0.072127  -1.410807  -0.803044
