butane_opt
 OpenBabel08242015413D

 14 13  0  0  0  0  0  0  0  0999 V2000
   -3.9291    0.2479    0.0318 C   0  0  0  0  0  0  0  0  0  0  0  0
   -2.7204   -0.5987    0.0348 C   0  0  0  0  0  0  0  0  0  0  0  0
   -4.8272   -0.3432   -0.0736 H   0  0  0  0  0  0  0  0  0  0  0  0
   -3.8903    0.7982   -0.8786 H   0  0  0  0  0  0  0  0  0  0  0  0
   -4.0135    0.9526    0.9029 H   0  0  0  0  0  0  0  0  0  0  0  0
   -1.4180    0.2183    0.0139 C   0  0  0  0  0  0  0  0  0  0  0  0
   -2.8010   -1.3584   -0.8842 H   0  0  0  0  0  0  0  0  0  0  0  0
   -2.7741   -1.1670    0.8240 H   0  0  0  0  0  0  0  0  0  0  0  0
   -0.1423   -0.7215    0.0448 C   0  0  0  0  0  0  0  0  0  0  0  0
   -1.4073    0.8819    0.8486 H   0  0  0  0  0  0  0  0  0  0  0  0
   -1.4238    0.8032   -0.8676 H   0  0  0  0  0  0  0  0  0  0  0  0
    0.1029   -1.4483    0.9930 H   0  0  0  0  0  0  0  0  0  0  0  0
    0.7327   -0.1518   -0.2195 H   0  0  0  0  0  0  0  0  0  0  0  0
   -0.2065   -1.1780   -0.6798 H   0  0  0  0  0  0  0  0  0  0  0  0
  1  2  1  0  0  0  0
  1  5  1  0  0  0  0
  2  8  1  0  0  0  0
  3  1  1  0  0  0  0
  4  1  1  0  0  0  0
  6  2  1  0  0  0  0
  6  9  1  0  0  0  0
  6 10  1  0  0  0  0
  7  2  1  0  0  0  0
  9 12  1  0  0  0  0
 11  6  1  0  0  0  0
 13  9  1  0  0  0  0
 14  9  1  0  0  0  0
M  END
$$$$
