butane_opt
 OpenBabel08242015413D

 14 13  0  0  0  0  0  0  0  0999 V2000
   -3.9638    0.2398    0.0619 C   0  0  0  0  0  0  0  0  0  0  0  0
   -2.7016   -0.5925   -0.0125 C   0  0  0  0  0  0  0  0  0  0  0  0
   -4.9123   -0.4312    0.0531 H   0  0  0  0  0  0  0  0  0  0  0  0
   -3.9837    0.8535   -0.8178 H   0  0  0  0  0  0  0  0  0  0  0  0
   -3.9498    1.0149    0.9693 H   0  0  0  0  0  0  0  0  0  0  0  0
   -1.4088    0.2097   -0.0297 C   0  0  0  0  0  0  0  0  0  0  0  0
   -2.8171   -1.3770   -0.9264 H   0  0  0  0  0  0  0  0  0  0  0  0
   -2.6019   -1.0903    0.7939 H   0  0  0  0  0  0  0  0  0  0  0  0
   -0.1475   -0.7125    0.0776 C   0  0  0  0  0  0  0  0  0  0  0  0
   -1.4238    0.8615    0.8240 H   0  0  0  0  0  0  0  0  0  0  0  0
   -1.3355    0.7997   -0.9280 H   0  0  0  0  0  0  0  0  0  0  0  0
    0.0253   -1.5340    1.0649 H   0  0  0  0  0  0  0  0  0  0  0  0
    0.7720   -0.1503   -0.0886 H   0  0  0  0  0  0  0  0  0  0  0  0
   -0.1254   -1.1499   -0.6467 H   0  0  0  0  0  0  0  0  0  0  0  0
  1  5  1  0  0  0  0
  2  1  1  0  0  0  0
  2  8  1  0  0  0  0
  3  1  1  0  0  0  0
  4  1  1  0  0  0  0
  6  2  1  0  0  0  0
  6  9  1  0  0  0  0
  6 10  1  0  0  0  0
  7  2  1  0  0  0  0
  9 12  1  0  0  0  0
 11  6  1  0  0  0  0
 13  9  1  0  0  0  0
 14  9  1  0  0  0  0
M  END
$$$$
