butane_opt
 OpenBabel08242015413D

 14 13  0  0  0  0  0  0  0  0999 V2000
   -3.9384    0.2594   -0.0271 C   0  0  0  0  0  0  0  0  0  0  0  0
   -2.7307   -0.6262    0.0836 C   0  0  0  0  0  0  0  0  0  0  0  0
   -4.8660   -0.3030   -0.0482 H   0  0  0  0  0  0  0  0  0  0  0  0
   -3.9003    0.9467   -0.9417 H   0  0  0  0  0  0  0  0  0  0  0  0
   -4.0547    0.8949    0.8228 H   0  0  0  0  0  0  0  0  0  0  0  0
   -1.3944    0.2084    0.0689 C   0  0  0  0  0  0  0  0  0  0  0  0
   -2.7550   -1.3103   -0.8076 H   0  0  0  0  0  0  0  0  0  0  0  0
   -2.6738   -1.1964    0.9194 H   0  0  0  0  0  0  0  0  0  0  0  0
   -0.1509   -0.7154   -0.0113 C   0  0  0  0  0  0  0  0  0  0  0  0
   -1.3520    0.9355    0.9610 H   0  0  0  0  0  0  0  0  0  0  0  0
   -1.4287    0.7774   -0.7747 H   0  0  0  0  0  0  0  0  0  0  0  0
    0.0671   -1.3982    0.8995 H   0  0  0  0  0  0  0  0  0  0  0  0
    0.7714   -0.1049   -0.1917 H   0  0  0  0  0  0  0  0  0  0  0  0
   -0.2555   -1.2256   -0.7616 H   0  0  0  0  0  0  0  0  0  0  0  0
  1  2  1  0  0  0  0
  1  5  1  0  0  0  0
  2  8  1  0  0  0  0
  3  1  1  0  0  0  0
  4  1  1  0  0  0  0
  6  2  1  0  0  0  0
  6 10  1  0  0  0  0
  7  2  1  0  0  0  0
  9  6  1  0  0  0  0
  9 12  1  0  0  0  0
 11  6  1  0  0  0  0
 13  9  1  0  0  0  0
 14  9  1  0  0  0  0
M  END
$$$$
