butane_opt
 OpenBabel08242015413D

 14 13  0  0  0  0  0  0  0  0999 V2000
   -3.9337    0.2338   -0.0228 C   0  0  0  0  0  0  0  0  0  0  0  0
   -2.7093   -0.5968    0.0763 C   0  0  0  0  0  0  0  0  0  0  0  0
   -4.8468   -0.3292   -0.1101 H   0  0  0  0  0  0  0  0  0  0  0  0
   -3.9936    0.8670   -0.9577 H   0  0  0  0  0  0  0  0  0  0  0  0
   -4.0064    0.9345    0.8329 H   0  0  0  0  0  0  0  0  0  0  0  0
   -1.4239    0.2291    0.0644 C   0  0  0  0  0  0  0  0  0  0  0  0
   -2.6636   -1.2249   -0.7276 H   0  0  0  0  0  0  0  0  0  0  0  0
   -2.8224   -1.2806    1.0136 H   0  0  0  0  0  0  0  0  0  0  0  0
   -0.1355   -0.7077   -0.0068 C   0  0  0  0  0  0  0  0  0  0  0  0
   -1.3587    0.9435    0.9512 H   0  0  0  0  0  0  0  0  0  0  0  0
   -1.4116    0.6667   -0.7495 H   0  0  0  0  0  0  0  0  0  0  0  0
    0.0491   -1.4290    0.9304 H   0  0  0  0  0  0  0  0  0  0  0  0
    0.7263   -0.1877   -0.2402 H   0  0  0  0  0  0  0  0  0  0  0  0
   -0.2487   -1.3286   -0.8307 H   0  0  0  0  0  0  0  0  0  0  0  0
  1  2  1  0  0  0  0
  1  5  1  0  0  0  0
  2  8  1  0  0  0  0
  3  1  1  0  0  0  0
  4  1  1  0  0  0  0
  6  2  1  0  0  0  0
  6 10  1  0  0  0  0
  7  2  1  0  0  0  0
  9  6  1  0  0  0  0
  9 12  1  0  0  0  0
 11  6  1  0  0  0  0
 13  9  1  0  0  0  0
 14  9  1  0  0  0  0
M  END
$$$$
