butane_opt
 OpenBabel08242015413D

 14 13  0  0  0  0  0  0  0  0999 V2000
   -3.9286    0.2472    0.0519 C   0  0  0  0  0  0  0  0  0  0  0  0
   -2.7011   -0.5925   -0.0156 C   0  0  0  0  0  0  0  0  0  0  0  0
   -4.8877   -0.4028    0.2189 H   0  0  0  0  0  0  0  0  0  0  0  0
   -4.0029    0.9802   -0.9054 H   0  0  0  0  0  0  0  0  0  0  0  0
   -3.8126    0.8616    0.8470 H   0  0  0  0  0  0  0  0  0  0  0  0
   -1.4074    0.1955   -0.0185 C   0  0  0  0  0  0  0  0  0  0  0  0
   -2.8081   -1.2692   -0.8871 H   0  0  0  0  0  0  0  0  0  0  0  0
   -2.6614   -1.2146    0.8146 H   0  0  0  0  0  0  0  0  0  0  0  0
   -0.1704   -0.7212    0.0762 C   0  0  0  0  0  0  0  0  0  0  0  0
   -1.4320    0.9889    0.9074 H   0  0  0  0  0  0  0  0  0  0  0  0
   -1.4527    0.7964   -0.8763 H   0  0  0  0  0  0  0  0  0  0  0  0
   -0.1594   -1.3675    0.9943 H   0  0  0  0  0  0  0  0  0  0  0  0
    0.8010   -0.0591   -0.0695 H   0  0  0  0  0  0  0  0  0  0  0  0
   -0.1170   -1.3327   -0.7439 H   0  0  0  0  0  0  0  0  0  0  0  0
  1  3  1  0  0  0  0
  1  5  1  0  0  0  0
  2  1  1  0  0  0  0
  2  8  1  0  0  0  0
  4  1  1  0  0  0  0
  6  2  1  0  0  0  0
  6  9  1  0  0  0  0
  6 10  1  0  0  0  0
  7  2  1  0  0  0  0
  9 12  1  0  0  0  0
 11  6  1  0  0  0  0
 13  9  1  0  0  0  0
 14  9  1  0  0  0  0
M  END
$$$$
