butane_opt
 OpenBabel08242015413D

 14 13  0  0  0  0  0  0  0  0999 V2000
   -3.9303    0.2598   -0.0286 C   0  0  0  0  0  0  0  0  0  0  0  0
   -2.6915   -0.6121    0.1127 C   0  0  0  0  0  0  0  0  0  0  0  0
   -4.8415   -0.3409   -0.0967 H   0  0  0  0  0  0  0  0  0  0  0  0
   -3.8532    0.9134   -0.9822 H   0  0  0  0  0  0  0  0  0  0  0  0
   -4.0433    0.9252    0.8129 H   0  0  0  0  0  0  0  0  0  0  0  0
   -1.4059    0.1915    0.0500 C   0  0  0  0  0  0  0  0  0  0  0  0
   -2.6753   -1.2437   -0.6917 H   0  0  0  0  0  0  0  0  0  0  0  0
   -2.7378   -1.2515    1.0631 H   0  0  0  0  0  0  0  0  0  0  0  0
   -0.1887   -0.7007   -0.0236 C   0  0  0  0  0  0  0  0  0  0  0  0
   -1.2423    0.8070    0.8771 H   0  0  0  0  0  0  0  0  0  0  0  0
   -1.4509    0.8057   -0.8247 H   0  0  0  0  0  0  0  0  0  0  0  0
   -0.1442   -1.1541    0.7446 H   0  0  0  0  0  0  0  0  0  0  0  0
    0.6890   -0.0974    0.1595 H   0  0  0  0  0  0  0  0  0  0  0  0
   -0.1180   -1.5027   -0.9577 H   0  0  0  0  0  0  0  0  0  0  0  0
  1  2  1  0  0  0  0
  1  5  1  0  0  0  0
  2  8  1  0  0  0  0
  3  1  1  0  0  0  0
  4  1  1  0  0  0  0
  6  2  1  0  0  0  0
  6 10  1  0  0  0  0
  7  2  1  0  0  0  0
  9  6  1  0  0  0  0
  9 13  1  0  0  0  0
  9 12  1  0  0  0  0
 11  6  1  0  0  0  0
 14  9  1  0  0  0  0
M  END
$$$$
