14
butane_opt
C  -3.932302   0.246656   0.028042
C  -2.681316  -0.574783   0.001405
H  -4.942328  -0.386752   0.261287
H  -4.039318   0.906481  -0.894616
H  -3.752727   0.791942   0.843882
C  -1.425241   0.199380   0.012619
H  -2.752429  -1.362559  -0.920302
H  -2.701487  -1.225969   0.867778
C  -0.155550  -0.708443   0.053532
H  -1.447324   0.830659   0.844568
H  -1.404820   0.860409  -0.899569
H  -0.199282  -1.300479   0.982413
H   0.696036  -0.166353  -0.020603
H  -0.132223  -1.378078  -0.789858
