butane_opt
 OpenBabel08242015413D

 14 13  0  0  0  0  0  0  0  0999 V2000
   -3.8997    0.2404    0.0069 C   0  0  0  0  0  0  0  0  0  0  0  0
   -2.7011   -0.5941    0.0300 C   0  0  0  0  0  0  0  0  0  0  0  0
   -4.8513   -0.3680    0.1939 H   0  0  0  0  0  0  0  0  0  0  0  0
   -4.0390    1.0175   -0.9968 H   0  0  0  0  0  0  0  0  0  0  0  0
   -3.8717    0.7582    0.7962 H   0  0  0  0  0  0  0  0  0  0  0  0
   -1.4430    0.2125    0.0300 C   0  0  0  0  0  0  0  0  0  0  0  0
   -2.8054   -1.2755   -0.7974 H   0  0  0  0  0  0  0  0  0  0  0  0
   -2.6663   -1.2213    0.8963 H   0  0  0  0  0  0  0  0  0  0  0  0
   -0.1574   -0.7113    0.0266 C   0  0  0  0  0  0  0  0  0  0  0  0
   -1.4057    0.9766    0.9444 H   0  0  0  0  0  0  0  0  0  0  0  0
   -1.4230    0.7112   -0.8009 H   0  0  0  0  0  0  0  0  0  0  0  0
   -0.1196   -1.3149    0.8928 H   0  0  0  0  0  0  0  0  0  0  0  0
    0.7268   -0.1838   -0.0392 H   0  0  0  0  0  0  0  0  0  0  0  0
   -0.1375   -1.3376   -0.7972 H   0  0  0  0  0  0  0  0  0  0  0  0
  1  2  1  0  0  0  0
  1  3  1  0  0  0  0
  1  5  1  0  0  0  0
  2  8  1  0  0  0  0
  4  1  1  0  0  0  0
  6  2  1  0  0  0  0
  6 10  1  0  0  0  0
  7  2  1  0  0  0  0
  9  6  1  0  0  0  0
  9 12  1  0  0  0  0
 11  6  1  0  0  0  0
 13  9  1  0  0  0  0
 14  9  1  0  0  0  0
M  END
$$$$
