butane_opt
 OpenBabel08242015413D

 14 13  0  0  0  0  0  0  0  0999 V2000
   -3.9435    0.2496    0.0459 C   0  0  0  0  0  0  0  0  0  0  0  0
   -2.7119   -0.6105    0.0103 C   0  0  0  0  0  0  0  0  0  0  0  0
   -4.8099   -0.3176    0.1513 H   0  0  0  0  0  0  0  0  0  0  0  0
   -4.0312    0.9517   -0.8800 H   0  0  0  0  0  0  0  0  0  0  0  0
   -3.8756    0.8483    0.8583 H   0  0  0  0  0  0  0  0  0  0  0  0
   -1.4167    0.2019   -0.0121 C   0  0  0  0  0  0  0  0  0  0  0  0
   -2.7678   -1.3470   -0.9104 H   0  0  0  0  0  0  0  0  0  0  0  0
   -2.6860   -1.1687    0.8317 H   0  0  0  0  0  0  0  0  0  0  0  0
   -0.1451   -0.7006    0.0619 C   0  0  0  0  0  0  0  0  0  0  0  0
   -1.4564    0.8874    0.8494 H   0  0  0  0  0  0  0  0  0  0  0  0
   -1.3382    0.8403   -0.9393 H   0  0  0  0  0  0  0  0  0  0  0  0
   -0.1191   -1.3410    0.9547 H   0  0  0  0  0  0  0  0  0  0  0  0
    0.7482   -0.1531    0.0320 H   0  0  0  0  0  0  0  0  0  0  0  0
   -0.0843   -1.3533   -0.7927 H   0  0  0  0  0  0  0  0  0  0  0  0
  1  3  1  0  0  0  0
  1  5  1  0  0  0  0
  2  1  1  0  0  0  0
  2  8  1  0  0  0  0
  4  1  1  0  0  0  0
  6  2  1  0  0  0  0
  6  9  1  0  0  0  0
  6 10  1  0  0  0  0
  7  2  1  0  0  0  0
  9 12  1  0  0  0  0
 11  6  1  0  0  0  0
 13  9  1  0  0  0  0
 14  9  1  0  0  0  0
M  END
$$$$
