butane_opt
 OpenBabel08242015413D

 14 13  0  0  0  0  0  0  0  0999 V2000
   -3.9829    0.2903   -0.0389 C   0  0  0  0  0  0  0  0  0  0  0  0
   -2.6906   -0.6462    0.0895 C   0  0  0  0  0  0  0  0  0  0  0  0
   -4.9316   -0.2981   -0.0554 H   0  0  0  0  0  0  0  0  0  0  0  0
   -3.9125    1.0179   -1.0159 H   0  0  0  0  0  0  0  0  0  0  0  0
   -4.0960    0.9077    0.7763 H   0  0  0  0  0  0  0  0  0  0  0  0
   -1.3697    0.1627    0.0924 C   0  0  0  0  0  0  0  0  0  0  0  0
   -2.7365   -1.2734   -0.7548 H   0  0  0  0  0  0  0  0  0  0  0  0
   -2.7259   -1.3474    1.0204 H   0  0  0  0  0  0  0  0  0  0  0  0
   -0.1633   -0.6860   -0.0403 C   0  0  0  0  0  0  0  0  0  0  0  0
   -1.2598    0.9789    1.0323 H   0  0  0  0  0  0  0  0  0  0  0  0
   -1.4055    0.7312   -0.7109 H   0  0  0  0  0  0  0  0  0  0  0  0
   -0.0060   -1.3497    0.9094 H   0  0  0  0  0  0  0  0  0  0  0  0
    0.8078   -0.0541   -0.1547 H   0  0  0  0  0  0  0  0  0  0  0  0
   -0.2822   -1.2312   -0.8385 H   0  0  0  0  0  0  0  0  0  0  0  0
  1  2  1  0  0  0  0
  1  5  1  0  0  0  0
  2  6  1  0  0  0  0
  2  8  1  0  0  0  0
  3  1  1  0  0  0  0
  4  1  1  0  0  0  0
  6 10  1  0  0  0  0
  7  2  1  0  0  0  0
  9  6  1  0  0  0  0
  9 12  1  0  0  0  0
 11  6  1  0  0  0  0
 13  9  1  0  0  0  0
 14  9  1  0  0  0  0
M  END
$$$$
