14
butane_opt
C  -3.917688   0.235805  -0.013139
C  -2.692249  -0.596673   0.041880
H  -4.883703  -0.393964   0.005135
H  -3.952967   0.883102  -0.880293
H  -3.881378   0.934336   0.877894
C  -1.427004   0.217724   0.072325
H  -2.692415  -1.300542  -0.828920
H  -2.750683  -1.161437   0.921589
C  -0.168654  -0.716450   0.002383
H  -1.356874   0.905709   0.951417
H  -1.384247   0.913516  -0.859828
H  -0.019558  -1.540444   1.033280
H   0.704322  -0.188529  -0.222797
H  -0.313869  -1.228952  -0.780971
