butane_opt
 OpenBabel08242015413D

 14 13  0  0  0  0  0  0  0  0999 V2000
   -3.9482    0.2536    0.0663 C   0  0  0  0  0  0  0  0  0  0  0  0
   -2.7208   -0.6141   -0.0093 C   0  0  0  0  0  0  0  0  0  0  0  0
   -4.8487   -0.3082   -0.0226 H   0  0  0  0  0  0  0  0  0  0  0  0
   -3.9739    0.7800   -0.8101 H   0  0  0  0  0  0  0  0  0  0  0  0
   -3.9013    1.0167    0.9983 H   0  0  0  0  0  0  0  0  0  0  0  0
   -1.3978    0.2130   -0.0241 C   0  0  0  0  0  0  0  0  0  0  0  0
   -2.8624   -1.3674   -0.9702 H   0  0  0  0  0  0  0  0  0  0  0  0
   -2.7006   -1.1867    0.8017 H   0  0  0  0  0  0  0  0  0  0  0  0
   -0.1379   -0.7107    0.0836 C   0  0  0  0  0  0  0  0  0  0  0  0
   -1.4805    0.8541    0.7632 H   0  0  0  0  0  0  0  0  0  0  0  0
   -1.3405    0.9262   -0.9593 H   0  0  0  0  0  0  0  0  0  0  0  0
   -0.0229   -1.4995    1.1115 H   0  0  0  0  0  0  0  0  0  0  0  0
    0.7271   -0.1252   -0.1336 H   0  0  0  0  0  0  0  0  0  0  0  0
   -0.1677   -1.2670   -0.7215 H   0  0  0  0  0  0  0  0  0  0  0  0
  1  5  1  0  0  0  0
  2  1  1  0  0  0  0
  2  8  1  0  0  0  0
  3  1  1  0  0  0  0
  4  1  1  0  0  0  0
  6  2  1  0  0  0  0
  6  9  1  0  0  0  0
  6 10  1  0  0  0  0
  7  2  1  0  0  0  0
  9 12  1  0  0  0  0
 11  6  1  0  0  0  0
 13  9  1  0  0  0  0
 14  9  1  0  0  0  0
M  END
$$$$
