butane_opt
 OpenBabel08242015413D

 14 13  0  0  0  0  0  0  0  0999 V2000
   -3.9240    0.2576   -0.0327 C   0  0  0  0  0  0  0  0  0  0  0  0
   -2.6895   -0.5961    0.0928 C   0  0  0  0  0  0  0  0  0  0  0  0
   -4.8805   -0.3727    0.0254 H   0  0  0  0  0  0  0  0  0  0  0  0
   -3.9358    0.9198   -0.9868 H   0  0  0  0  0  0  0  0  0  0  0  0
   -3.9755    0.8179    0.7691 H   0  0  0  0  0  0  0  0  0  0  0  0
   -1.4166    0.1928    0.0731 C   0  0  0  0  0  0  0  0  0  0  0  0
   -2.6730   -1.2759   -0.7509 H   0  0  0  0  0  0  0  0  0  0  0  0
   -2.7436   -1.2432    0.9369 H   0  0  0  0  0  0  0  0  0  0  0  0
   -0.1675   -0.7016   -0.0163 C   0  0  0  0  0  0  0  0  0  0  0  0
   -1.4811    0.8827    0.9340 H   0  0  0  0  0  0  0  0  0  0  0  0
   -1.4491    0.7709   -0.7718 H   0  0  0  0  0  0  0  0  0  0  0  0
   -0.0434   -1.3271    0.8724 H   0  0  0  0  0  0  0  0  0  0  0  0
    0.8172   -0.0619   -0.0856 H   0  0  0  0  0  0  0  0  0  0  0  0
   -0.2898   -1.4042   -0.9130 H   0  0  0  0  0  0  0  0  0  0  0  0
  1  3  1  0  0  0  0
  1  2  1  0  0  0  0
  1  5  1  0  0  0  0
  2  8  1  0  0  0  0
  4  1  1  0  0  0  0
  6  2  1  0  0  0  0
  6 10  1  0  0  0  0
  7  2  1  0  0  0  0
  9  6  1  0  0  0  0
  9 12  1  0  0  0  0
 11  6  1  0  0  0  0
 13  9  1  0  0  0  0
 14  9  1  0  0  0  0
M  END
$$$$
