butane_opt
 OpenBabel08242015413D

 14 13  0  0  0  0  0  0  0  0999 V2000
   -3.9340    0.2722    0.0113 C   0  0  0  0  0  0  0  0  0  0  0  0
   -2.6928   -0.6356    0.0580 C   0  0  0  0  0  0  0  0  0  0  0  0
   -4.8552   -0.3217    0.0719 H   0  0  0  0  0  0  0  0  0  0  0  0
   -4.0003    0.9547   -0.9385 H   0  0  0  0  0  0  0  0  0  0  0  0
   -3.9474    0.9669    0.8739 H   0  0  0  0  0  0  0  0  0  0  0  0
   -1.3940    0.1783    0.0130 C   0  0  0  0  0  0  0  0  0  0  0  0
   -2.5919   -1.2371   -0.7569 H   0  0  0  0  0  0  0  0  0  0  0  0
   -2.7467   -1.3134    0.9603 H   0  0  0  0  0  0  0  0  0  0  0  0
   -0.1814   -0.6828    0.0244 C   0  0  0  0  0  0  0  0  0  0  0  0
   -1.3704    0.7879    0.7908 H   0  0  0  0  0  0  0  0  0  0  0  0
   -1.3787    0.8702   -0.9001 H   0  0  0  0  0  0  0  0  0  0  0  0
   -0.3267   -1.1077    0.7854 H   0  0  0  0  0  0  0  0  0  0  0  0
    0.7272   -0.0985    0.1850 H   0  0  0  0  0  0  0  0  0  0  0  0
   -0.0939   -1.5661   -0.9326 H   0  0  0  0  0  0  0  0  0  0  0  0
  1  2  1  0  0  0  0
  1  3  1  0  0  0  0
  1  5  1  0  0  0  0
  2  8  1  0  0  0  0
  4  1  1  0  0  0  0
  6  9  1  0  0  0  0
  6  2  1  0  0  0  0
  6 10  1  0  0  0  0
  7  2  1  0  0  0  0
  9 13  1  0  0  0  0
  9 12  1  0  0  0  0
 11  6  1  0  0  0  0
 14  9  1  0  0  0  0
M  END
$$$$
