14
butane_opt
C  -3.982941   0.290331  -0.038857
C  -2.690589  -0.646177   0.089501
H  -4.931596  -0.298076  -0.055397
H  -3.912530   1.017940  -1.015942
H  -4.096012   0.907675   0.776283
C  -1.369743   0.162735   0.092443
H  -2.736506  -1.273405  -0.754754
H  -2.725860  -1.347401   1.020376
C  -0.163266  -0.685989  -0.040255
H  -1.259813   0.978926   1.032323
H  -1.405491   0.731207  -0.710918
H  -0.006001  -1.349726   0.909393
H   0.807761  -0.054068  -0.154701
H  -0.282235  -1.231206  -0.838517
