14
butane_opt
C  -3.945199   0.278013   0.000687
C  -2.711845  -0.632367   0.063108
H  -4.820105  -0.298091  -0.099941
H  -3.914140   0.825815  -0.849503
H  -4.049710   1.010620   0.874322
C  -1.396245   0.178372   0.030334
H  -2.702906  -1.301684  -0.786070
H  -2.701368  -1.293452   1.006941
C  -0.156238  -0.686977   0.014009
H  -1.381159   0.821604   0.862489
H  -1.373926   0.850182  -0.884486
H  -0.082637  -1.297449   0.907464
H   0.751408  -0.075713  -0.013960
H  -0.238421  -1.358572  -0.868156
