14
butane_opt
C  -3.966557   0.291194   0.051890
C  -2.707770  -0.634585  -0.006034
H  -4.853175  -0.296307   0.231351
H  -4.061753   1.049904  -0.941922
H  -3.835872   0.801499   0.826486
C  -1.383075   0.153573   0.006018
H  -2.713956  -1.435551  -0.936797
H  -2.651444  -1.139602   0.839387
C  -0.167389  -0.668989   0.049479
H  -1.404453   0.826570   0.830266
H  -1.330525   0.802439  -0.907019
H  -0.236946  -1.395431   1.023768
H   0.820223  -0.054783   0.058635
H  -0.080949  -1.306621  -0.815790
