14
butane_opt
C  -3.955144   0.252312  -0.019270
C  -2.713633  -0.583328   0.064609
H  -4.910192  -0.431735   0.325543
H  -4.058510   1.046692  -1.071794
H  -3.890296   0.615467   0.634970
C  -1.396285   0.206128   0.062886
H  -2.697998  -1.316629  -0.855387
H  -2.746028  -1.152389   0.935848
C  -0.136497  -0.710975   0.004366
H  -1.370670   0.893565   0.945534
H  -1.505435   0.780586  -0.755414
H  -0.074852  -1.210258   0.832780
H   0.729884  -0.192947   0.003781
H  -0.066412  -1.480024  -0.939028
