butane_opt
 OpenBabel08242015413D

 14 13  0  0  0  0  0  0  0  0999 V2000
   -3.9575    0.2941   -0.0201 C   0  0  0  0  0  0  0  0  0  0  0  0
   -2.7108   -0.6350    0.0625 C   0  0  0  0  0  0  0  0  0  0  0  0
   -4.8972   -0.3775    0.2381 H   0  0  0  0  0  0  0  0  0  0  0  0
   -4.1067    1.0762   -1.0288 H   0  0  0  0  0  0  0  0  0  0  0  0
   -3.9075    0.7463    0.6706 H   0  0  0  0  0  0  0  0  0  0  0  0
   -1.3794    0.1762    0.0568 C   0  0  0  0  0  0  0  0  0  0  0  0
   -2.7603   -1.2897   -0.7797 H   0  0  0  0  0  0  0  0  0  0  0  0
   -2.6851   -1.2971    0.9704 H   0  0  0  0  0  0  0  0  0  0  0  0
   -0.1499   -0.6873    0.0028 C   0  0  0  0  0  0  0  0  0  0  0  0
   -1.3839    0.9141    0.9519 H   0  0  0  0  0  0  0  0  0  0  0  0
   -1.3969    0.6793   -0.7850 H   0  0  0  0  0  0  0  0  0  0  0  0
   -0.1191   -1.1648    0.8239 H   0  0  0  0  0  0  0  0  0  0  0  0
    0.7619   -0.0901    0.0413 H   0  0  0  0  0  0  0  0  0  0  0  0
   -0.1600   -1.4363   -0.9269 H   0  0  0  0  0  0  0  0  0  0  0  0
  1  2  1  0  0  0  0
  1  3  1  0  0  0  0
  1  5  1  0  0  0  0
  2  8  1  0  0  0  0
  4  1  1  0  0  0  0
  6  2  1  0  0  0  0
  6 10  1  0  0  0  0
  7  2  1  0  0  0  0
  9 13  1  0  0  0  0
  9  6  1  0  0  0  0
  9 12  1  0  0  0  0
 11  6  1  0  0  0  0
 14  9  1  0  0  0  0
M  END
$$$$
