butane_opt
 OpenBabel08242015413D

 14 13  0  0  0  0  0  0  0  0999 V2000
   -3.9392    0.2387    0.0525 C   0  0  0  0  0  0  0  0  0  0  0  0
   -2.7123   -0.5994   -0.0184 C   0  0  0  0  0  0  0  0  0  0  0  0
   -4.8192   -0.3282    0.2033 H   0  0  0  0  0  0  0  0  0  0  0  0
   -3.9925    0.9824   -0.9240 H   0  0  0  0  0  0  0  0  0  0  0  0
   -3.8790    0.8583    0.8882 H   0  0  0  0  0  0  0  0  0  0  0  0
   -1.4234    0.2160   -0.0113 C   0  0  0  0  0  0  0  0  0  0  0  0
   -2.8631   -1.3250   -0.9137 H   0  0  0  0  0  0  0  0  0  0  0  0
   -2.6445   -1.2878    0.8743 H   0  0  0  0  0  0  0  0  0  0  0  0
   -0.1395   -0.7063    0.0577 C   0  0  0  0  0  0  0  0  0  0  0  0
   -1.4402    0.9434    0.8695 H   0  0  0  0  0  0  0  0  0  0  0  0
   -1.4056    0.7909   -0.8427 H   0  0  0  0  0  0  0  0  0  0  0  0
   -0.1230   -1.3876    1.0782 H   0  0  0  0  0  0  0  0  0  0  0  0
    0.7307   -0.1559   -0.0103 H   0  0  0  0  0  0  0  0  0  0  0  0
   -0.0185   -1.3417   -0.7658 H   0  0  0  0  0  0  0  0  0  0  0  0
  1  3  1  0  0  0  0
  1  5  1  0  0  0  0
  2  6  1  0  0  0  0
  2  1  1  0  0  0  0
  2  8  1  0  0  0  0
  4  1  1  0  0  0  0
  6  9  1  0  0  0  0
  6 10  1  0  0  0  0
  7  2  1  0  0  0  0
  9 12  1  0  0  0  0
 11  6  1  0  0  0  0
 13  9  1  0  0  0  0
 14  9  1  0  0  0  0
M  END
$$$$
