butane_opt
 OpenBabel08242015413D

 14 13  0  0  0  0  0  0  0  0999 V2000
   -3.9475    0.2871   -0.0312 C   0  0  0  0  0  0  0  0  0  0  0  0
   -2.6787   -0.6304    0.1299 C   0  0  0  0  0  0  0  0  0  0  0  0
   -4.8448   -0.3400   -0.2218 H   0  0  0  0  0  0  0  0  0  0  0  0
   -3.8148    0.8626   -0.9421 H   0  0  0  0  0  0  0  0  0  0  0  0
   -4.1031    0.9742    0.8187 H   0  0  0  0  0  0  0  0  0  0  0  0
   -1.4090    0.1596    0.0474 C   0  0  0  0  0  0  0  0  0  0  0  0
   -2.6081   -1.3187   -0.7150 H   0  0  0  0  0  0  0  0  0  0  0  0
   -2.6995   -1.2621    1.0627 H   0  0  0  0  0  0  0  0  0  0  0  0
   -0.1882   -0.6725   -0.0163 C   0  0  0  0  0  0  0  0  0  0  0  0
   -1.3010    0.8162    0.8742 H   0  0  0  0  0  0  0  0  0  0  0  0
   -1.4314    0.7177   -0.7849 H   0  0  0  0  0  0  0  0  0  0  0  0
   -0.1229   -1.2003    0.7822 H   0  0  0  0  0  0  0  0  0  0  0  0
    0.7627   -0.0370   -0.0298 H   0  0  0  0  0  0  0  0  0  0  0  0
   -0.1886   -1.4026   -0.9670 H   0  0  0  0  0  0  0  0  0  0  0  0
  1  2  1  0  0  0  0
  1  5  1  0  0  0  0
  2  8  1  0  0  0  0
  3  1  1  0  0  0  0
  4  1  1  0  0  0  0
  6  2  1  0  0  0  0
  6 10  1  0  0  0  0
  7  2  1  0  0  0  0
  9  6  1  0  0  0  0
  9 12  1  0  0  0  0
 11  6  1  0  0  0  0
 13  9  1  0  0  0  0
 14  9  1  0  0  0  0
M  END
$$$$
