14
butane_opt
C  -3.947544   0.287127  -0.031190
C  -2.678689  -0.630431   0.129866
H  -4.844843  -0.339961  -0.221774
H  -3.814828   0.862584  -0.942106
H  -4.103096   0.974157   0.818697
C  -1.408990   0.159630   0.047442
H  -2.608117  -1.318679  -0.714977
H  -2.699496  -1.262057   1.062698
C  -0.188236  -0.672463  -0.016326
H  -1.301047   0.816241   0.874229
H  -1.431428   0.717651  -0.784891
H  -0.122897  -1.200270   0.782201
H   0.762742  -0.037046  -0.029849
H  -0.188612  -1.402594  -0.966953
