butane_opt
 OpenBabel08242015413D

 14 13  0  0  0  0  0  0  0  0999 V2000
   -3.9425    0.2462   -0.0257 C   0  0  0  0  0  0  0  0  0  0  0  0
   -2.7218   -0.5837    0.1070 C   0  0  0  0  0  0  0  0  0  0  0  0
   -4.9126   -0.3703    0.0361 H   0  0  0  0  0  0  0  0  0  0  0  0
   -3.8730    1.0291   -1.0519 H   0  0  0  0  0  0  0  0  0  0  0  0
   -3.9632    0.8052    0.7661 H   0  0  0  0  0  0  0  0  0  0  0  0
   -1.4009    0.1938    0.0451 C   0  0  0  0  0  0  0  0  0  0  0  0
   -2.7276   -1.2479   -0.7791 H   0  0  0  0  0  0  0  0  0  0  0  0
   -2.6973   -1.2726    1.0328 H   0  0  0  0  0  0  0  0  0  0  0  0
   -0.1462   -0.7019   -0.0030 C   0  0  0  0  0  0  0  0  0  0  0  0
   -1.3251    0.8638    0.9062 H   0  0  0  0  0  0  0  0  0  0  0  0
   -1.4660    0.7766   -0.8120 H   0  0  0  0  0  0  0  0  0  0  0  0
   -0.1353   -1.1498    0.7375 H   0  0  0  0  0  0  0  0  0  0  0  0
    0.7380   -0.1413    0.1248 H   0  0  0  0  0  0  0  0  0  0  0  0
   -0.1125   -1.6241   -1.0366 H   0  0  0  0  0  0  0  0  0  0  0  0
  1  3  1  0  0  0  0
  1  2  1  0  0  0  0
  1  5  1  0  0  0  0
  2  8  1  0  0  0  0
  4  1  1  0  0  0  0
  6  2  1  0  0  0  0
  6 10  1  0  0  0  0
  7  2  1  0  0  0  0
  9  6  1  0  0  0  0
  9 13  1  0  0  0  0
  9 12  1  0  0  0  0
 11  6  1  0  0  0  0
 14  9  1  0  0  0  0
M  END
$$$$
