butane_opt
 OpenBabel08242015413D

 14 13  0  0  0  0  0  0  0  0999 V2000
   -3.9508    0.2436    0.0464 C   0  0  0  0  0  0  0  0  0  0  0  0
   -2.7134   -0.6056    0.0056 C   0  0  0  0  0  0  0  0  0  0  0  0
   -4.8725   -0.3324   -0.1113 H   0  0  0  0  0  0  0  0  0  0  0  0
   -3.8924    0.7130   -0.7533 H   0  0  0  0  0  0  0  0  0  0  0  0
   -4.0007    1.0193    1.0016 H   0  0  0  0  0  0  0  0  0  0  0  0
   -1.4093    0.2324   -0.0116 C   0  0  0  0  0  0  0  0  0  0  0  0
   -2.6942   -1.3030   -0.8715 H   0  0  0  0  0  0  0  0  0  0  0  0
   -2.6976   -1.2597    0.9472 H   0  0  0  0  0  0  0  0  0  0  0  0
   -0.1341   -0.7160    0.0556 C   0  0  0  0  0  0  0  0  0  0  0  0
   -1.4515    0.8186    0.7930 H   0  0  0  0  0  0  0  0  0  0  0  0
   -1.3501    0.9008   -0.9099 H   0  0  0  0  0  0  0  0  0  0  0  0
   -0.0163   -1.4496    1.0099 H   0  0  0  0  0  0  0  0  0  0  0  0
    0.6753   -0.1822   -0.0686 H   0  0  0  0  0  0  0  0  0  0  0  0
   -0.2104   -1.2627   -0.7215 H   0  0  0  0  0  0  0  0  0  0  0  0
  1  5  1  0  0  0  0
  2  1  1  0  0  0  0
  2  8  1  0  0  0  0
  3  1  1  0  0  0  0
  4  1  1  0  0  0  0
  6  2  1  0  0  0  0
  6  9  1  0  0  0  0
  6 10  1  0  0  0  0
  7  2  1  0  0  0  0
  9 12  1  0  0  0  0
 11  6  1  0  0  0  0
 13  9  1  0  0  0  0
 14  9  1  0  0  0  0
M  END
$$$$
