butane_opt
 OpenBabel08242015413D

 14 13  0  0  0  0  0  0  0  0999 V2000
   -3.9456    0.2367    0.0654 C   0  0  0  0  0  0  0  0  0  0  0  0
   -2.6993   -0.5784   -0.0030 C   0  0  0  0  0  0  0  0  0  0  0  0
   -4.8817   -0.3748    0.1487 H   0  0  0  0  0  0  0  0  0  0  0  0
   -3.9753    0.8010   -0.8160 H   0  0  0  0  0  0  0  0  0  0  0  0
   -3.9455    0.9670    0.9546 H   0  0  0  0  0  0  0  0  0  0  0  0
   -1.4192    0.1926   -0.0474 C   0  0  0  0  0  0  0  0  0  0  0  0
   -2.8028   -1.3336   -0.9083 H   0  0  0  0  0  0  0  0  0  0  0  0
   -2.7437   -1.1482    0.8530 H   0  0  0  0  0  0  0  0  0  0  0  0
   -0.1395   -0.7189    0.0847 C   0  0  0  0  0  0  0  0  0  0  0  0
   -1.4965    0.8493    0.7322 H   0  0  0  0  0  0  0  0  0  0  0  0
   -1.3613    0.9423   -1.0277 H   0  0  0  0  0  0  0  0  0  0  0  0
   -0.1420   -1.2558    0.9152 H   0  0  0  0  0  0  0  0  0  0  0  0
    0.7885   -0.1138    0.1402 H   0  0  0  0  0  0  0  0  0  0  0  0
   -0.0114   -1.3954   -0.7402 H   0  0  0  0  0  0  0  0  0  0  0  0
  1  3  1  0  0  0  0
  1  5  1  0  0  0  0
  2  1  1  0  0  0  0
  2  8  1  0  0  0  0
  4  1  1  0  0  0  0
  6  2  1  0  0  0  0
  6  9  1  0  0  0  0
  6 10  1  0  0  0  0
  7  2  1  0  0  0  0
  9 13  1  0  0  0  0
  9 12  1  0  0  0  0
 11  6  1  0  0  0  0
 14  9  1  0  0  0  0
M  END
$$$$
