14
butane_opt
C  -3.956170   0.271822   0.068196
C  -2.708699  -0.642023  -0.018272
H  -4.792432  -0.261782   0.122094
H  -4.013436   0.884943  -0.851456
H  -4.000719   1.013297   1.010334
C  -1.384689   0.184055  -0.044046
H  -2.828303  -1.353618  -0.897327
H  -2.661046  -1.221388   0.773343
C  -0.158138  -0.690121   0.095101
H  -1.395726   0.856313   0.809606
H  -1.363160   0.896637  -0.992204
H  -0.133844  -1.373607   1.018308
H   0.779205  -0.059171   0.015639
H  -0.134527  -1.323497  -0.765572
