14
butane_opt
C  -3.950794   0.243577   0.046391
C  -2.713431  -0.605586   0.005600
H  -4.872455  -0.332371  -0.111293
H  -3.892374   0.713047  -0.753307
H  -4.000696   1.019328   1.001623
C  -1.409306   0.232356  -0.011602
H  -2.694227  -1.303047  -0.871502
H  -2.697564  -1.259747   0.947222
C  -0.134139  -0.715959   0.055569
H  -1.451508   0.818630   0.793004
H  -1.350132   0.900824  -0.909853
H  -0.016350  -1.449607   1.009852
H   0.675288  -0.182190  -0.068613
H  -0.210419  -1.262677  -0.721524
