butane_opt
 OpenBabel08242015413D

 14 13  0  0  0  0  0  0  0  0999 V2000
   -3.9182    0.2470   -0.0367 C   0  0  0  0  0  0  0  0  0  0  0  0
   -2.6923   -0.6010    0.0852 C   0  0  0  0  0  0  0  0  0  0  0  0
   -4.8353   -0.3517    0.0285 H   0  0  0  0  0  0  0  0  0  0  0  0
   -3.8815    0.9122   -0.9513 H   0  0  0  0  0  0  0  0  0  0  0  0
   -3.9615    0.8233    0.7778 H   0  0  0  0  0  0  0  0  0  0  0  0
   -1.4258    0.2024    0.0800 C   0  0  0  0  0  0  0  0  0  0  0  0
   -2.7562   -1.3054   -0.7877 H   0  0  0  0  0  0  0  0  0  0  0  0
   -2.7199   -1.1972    0.9593 H   0  0  0  0  0  0  0  0  0  0  0  0
   -0.1623   -0.7067   -0.0169 C   0  0  0  0  0  0  0  0  0  0  0  0
   -1.3609    0.9984    0.9675 H   0  0  0  0  0  0  0  0  0  0  0  0
   -1.4740    0.8474   -0.8177 H   0  0  0  0  0  0  0  0  0  0  0  0
   -0.0336   -1.4128    0.8932 H   0  0  0  0  0  0  0  0  0  0  0  0
    0.7116   -0.1628   -0.1252 H   0  0  0  0  0  0  0  0  0  0  0  0
   -0.3147   -1.3337   -0.8387 H   0  0  0  0  0  0  0  0  0  0  0  0
  1  3  1  0  0  0  0
  1  2  1  0  0  0  0
  1  5  1  0  0  0  0
  2  8  1  0  0  0  0
  4  1  1  0  0  0  0
  6  2  1  0  0  0  0
  6 10  1  0  0  0  0
  7  2  1  0  0  0  0
  9  6  1  0  0  0  0
  9 12  1  0  0  0  0
 11  6  1  0  0  0  0
 13  9  1  0  0  0  0
 14  9  1  0  0  0  0
M  END
$$$$
