butane_opt
 OpenBabel08242015413D

 14 13  0  0  0  0  0  0  0  0999 V2000
   -3.9629    0.2584   -0.0338 C   0  0  0  0  0  0  0  0  0  0  0  0
   -2.7331   -0.6094    0.1075 C   0  0  0  0  0  0  0  0  0  0  0  0
   -4.8993   -0.3296    0.1798 H   0  0  0  0  0  0  0  0  0  0  0  0
   -3.8843    0.9803   -1.0263 H   0  0  0  0  0  0  0  0  0  0  0  0
   -3.9216    0.7656    0.7426 H   0  0  0  0  0  0  0  0  0  0  0  0
   -1.4020    0.2008    0.0436 C   0  0  0  0  0  0  0  0  0  0  0  0
   -2.6566   -1.2807   -0.7409 H   0  0  0  0  0  0  0  0  0  0  0  0
   -2.7515   -1.1978    1.0052 H   0  0  0  0  0  0  0  0  0  0  0  0
   -0.1315   -0.7127   -0.0190 C   0  0  0  0  0  0  0  0  0  0  0  0
   -1.3565    0.8939    0.9537 H   0  0  0  0  0  0  0  0  0  0  0  0
   -1.3713    0.8689   -0.8607 H   0  0  0  0  0  0  0  0  0  0  0  0
   -0.1450   -1.1016    0.7388 H   0  0  0  0  0  0  0  0  0  0  0  0
    0.7511   -0.1365    0.2365 H   0  0  0  0  0  0  0  0  0  0  0  0
   -0.0362   -1.5925   -0.9971 H   0  0  0  0  0  0  0  0  0  0  0  0
  1  2  1  0  0  0  0
  1  3  1  0  0  0  0
  1  5  1  0  0  0  0
  2  8  1  0  0  0  0
  4  1  1  0  0  0  0
  6  2  1  0  0  0  0
  6 10  1  0  0  0  0
  7  2  1  0  0  0  0
  9  6  1  0  0  0  0
  9 13  1  0  0  0  0
  9 12  1  0  0  0  0
 11  6  1  0  0  0  0
 14  9  1  0  0  0  0
M  END
$$$$
