butane_opt
 OpenBabel08242015413D

 14 13  0  0  0  0  0  0  0  0999 V2000
   -3.9121    0.2701    0.0135 C   0  0  0  0  0  0  0  0  0  0  0  0
   -2.7029   -0.6262    0.0263 C   0  0  0  0  0  0  0  0  0  0  0  0
   -4.7959   -0.3163   -0.0050 H   0  0  0  0  0  0  0  0  0  0  0  0
   -3.9695    0.7951   -0.8377 H   0  0  0  0  0  0  0  0  0  0  0  0
   -4.0227    1.0074    0.9291 H   0  0  0  0  0  0  0  0  0  0  0  0
   -1.4028    0.1871    0.0453 C   0  0  0  0  0  0  0  0  0  0  0  0
   -2.7042   -1.3188   -0.8495 H   0  0  0  0  0  0  0  0  0  0  0  0
   -2.6872   -1.1665    0.8463 H   0  0  0  0  0  0  0  0  0  0  0  0
   -0.1888   -0.6982    0.0310 C   0  0  0  0  0  0  0  0  0  0  0  0
   -1.3592    0.8095    0.7994 H   0  0  0  0  0  0  0  0  0  0  0  0
   -1.4263    0.8726   -0.8965 H   0  0  0  0  0  0  0  0  0  0  0  0
   -0.0788   -1.4893    1.0491 H   0  0  0  0  0  0  0  0  0  0  0  0
    0.7809   -0.0548   -0.1885 H   0  0  0  0  0  0  0  0  0  0  0  0
   -0.2800   -1.2017   -0.7628 H   0  0  0  0  0  0  0  0  0  0  0  0
  1  2  1  0  0  0  0
  1  5  1  0  0  0  0
  2  6  1  0  0  0  0
  2  8  1  0  0  0  0
  3  1  1  0  0  0  0
  4  1  1  0  0  0  0
  6 10  1  0  0  0  0
  7  2  1  0  0  0  0
  9  6  1  0  0  0  0
  9 12  1  0  0  0  0
 11  6  1  0  0  0  0
 13  9  1  0  0  0  0
 14  9  1  0  0  0  0
M  END
$$$$
