14
butane_opt
C  -3.959583   0.287495   0.023727
C  -2.704425  -0.644927   0.058861
H  -4.830946  -0.265962  -0.060810
H  -3.970338   0.887644  -0.862549
H  -4.123036   0.941358   0.833805
C  -1.370072   0.182177   0.001023
H  -2.759843  -1.365946  -0.795066
H  -2.678104  -1.270027   0.940547
C  -0.161403  -0.683305   0.029230
H  -1.350069   0.817848   0.812670
H  -1.428255   0.803500  -0.903861
H  -0.163570  -1.239044   0.856211
H   0.779667  -0.087014   0.138879
H  -0.157582  -1.381418  -0.871561
