14
butane_opt
C  -3.921358   0.253420   0.093580
C  -2.689403  -0.597808  -0.015836
H  -4.890524  -0.426136   0.118871
H  -3.883607   0.801955  -0.783028
H  -3.910763   0.875016   0.920743
C  -1.416683   0.208364  -0.073234
H  -2.831152  -1.281549  -0.919366
H  -2.632456  -1.150110   0.783423
C  -0.170365  -0.714832   0.100331
H  -1.423933   0.826935   0.691286
H  -1.407894   0.976564  -1.046443
H  -0.291785  -1.249177   0.925488
H   0.666325  -0.181001   0.283965
H  -0.024575  -1.484080  -0.791165
