14
butane_opt
C  -3.949278   0.247488  -0.022534
C  -2.735062  -0.587047   0.042642
H  -4.873527  -0.323024   0.308968
H  -4.038968   1.031187  -1.035650
H  -3.766630   0.728370   0.737385
C  -1.411297   0.218231   0.065796
H  -2.759401  -1.264625  -0.789600
H  -2.780396  -1.308503   1.017246
C  -0.123141  -0.726432  -0.008721
H  -1.364395   0.896714   0.956356
H  -1.419141   0.764952  -0.797442
H  -0.083117  -1.233114   0.854168
H   0.812959  -0.132598   0.123668
H  -0.128514  -1.441041  -0.884358
