14
butane_opt
C  -3.912069   0.270117   0.013466
C  -2.702877  -0.626236   0.026253
H  -4.795898  -0.316298  -0.005001
H  -3.969472   0.795115  -0.837740
H  -4.022704   1.007372   0.929107
C  -1.402786   0.187111   0.045305
H  -2.704217  -1.318815  -0.849460
H  -2.687244  -1.166469   0.846259
C  -0.188780  -0.698170   0.031015
H  -1.359207   0.809539   0.799406
H  -1.426268   0.872619  -0.896548
H  -0.078822  -1.489297   1.049147
H   0.780920  -0.054769  -0.188465
H  -0.279975  -1.201730  -0.762844
