14
butane_opt
C  -3.943747   0.274418   0.027696
C  -2.700142  -0.636549   0.035808
H  -4.808654  -0.271665   0.114655
H  -3.983935   1.066397  -0.977520
H  -3.909521   0.783445   0.771862
C  -1.394350   0.187521   0.027647
H  -2.698531  -1.345481  -0.860317
H  -2.622304  -1.212040   0.853646
C  -0.185816  -0.684156   0.022632
H  -1.403979   0.816169   0.884309
H  -1.329155   0.782154  -0.870459
H  -0.176137  -1.304275   0.952754
H   0.731416  -0.025163   0.042214
H  -0.150927  -1.442333  -0.868426
