14
butane_opt
C  -3.937075   0.249097  -0.014756
C  -2.694040  -0.597522   0.055212
H  -4.842808  -0.354767   0.153133
H  -3.992940   1.040930  -0.991307
H  -3.800412   0.718847   0.747313
C  -1.410241   0.196348   0.064666
H  -2.703835  -1.257658  -0.812410
H  -2.685605  -1.247907   0.947237
C  -0.170924  -0.694781  -0.011901
H  -1.397408   0.878166   0.953180
H  -1.515798   0.742268  -0.774398
H  -0.117579  -1.288727   0.915741
H   0.653932  -0.182353   0.037766
H  -0.078352  -1.356438  -0.880981
