14
butane_opt
C  -3.935294   0.271032   0.044405
C  -2.700211  -0.615621   0.009773
H  -4.837803  -0.344703  -0.093583
H  -3.947240   0.771050  -0.772309
H  -3.954071   1.073677   1.004191
C  -1.406612   0.173404  -0.018118
H  -2.757224  -1.278015  -0.823634
H  -2.670256  -1.268463   0.906681
C  -0.160943  -0.693895   0.058958
H  -1.441711   0.807610   0.797523
H  -1.347080   0.849371  -0.921937
H  -0.179302  -1.355287   0.997642
H   0.763533  -0.083617  -0.041700
H  -0.211466  -1.261426  -0.743744
