butane_opt
 OpenBabel08242015413D

 14 13  0  0  0  0  0  0  0  0999 V2000
   -3.9275    0.2731   -0.0228 C   0  0  0  0  0  0  0  0  0  0  0  0
   -2.6902   -0.6341    0.1029 C   0  0  0  0  0  0  0  0  0  0  0  0
   -4.8151   -0.2847   -0.2188 H   0  0  0  0  0  0  0  0  0  0  0  0
   -3.8349    0.8348   -0.9306 H   0  0  0  0  0  0  0  0  0  0  0  0
   -4.1119    1.0702    0.9088 H   0  0  0  0  0  0  0  0  0  0  0  0
   -1.4135    0.1640    0.0466 C   0  0  0  0  0  0  0  0  0  0  0  0
   -2.5850   -1.2437   -0.6772 H   0  0  0  0  0  0  0  0  0  0  0  0
   -2.7355   -1.3222    1.0527 H   0  0  0  0  0  0  0  0  0  0  0  0
   -0.1771   -0.6648   -0.0193 C   0  0  0  0  0  0  0  0  0  0  0  0
   -1.3309    0.8644    0.9432 H   0  0  0  0  0  0  0  0  0  0  0  0
   -1.4820    0.6936   -0.8189 H   0  0  0  0  0  0  0  0  0  0  0  0
   -0.2032   -1.3065    0.8891 H   0  0  0  0  0  0  0  0  0  0  0  0
    0.7387   -0.0873   -0.0851 H   0  0  0  0  0  0  0  0  0  0  0  0
   -0.1713   -1.3398   -0.9012 H   0  0  0  0  0  0  0  0  0  0  0  0
  1  2  1  0  0  0  0
  1  5  1  0  0  0  0
  2  8  1  0  0  0  0
  3  1  1  0  0  0  0
  4  1  1  0  0  0  0
  6  2  1  0  0  0  0
  6 10  1  0  0  0  0
  7  2  1  0  0  0  0
  9  6  1  0  0  0  0
  9 12  1  0  0  0  0
 11  6  1  0  0  0  0
 13  9  1  0  0  0  0
 14  9  1  0  0  0  0
M  END
$$$$
