butane_opt
 OpenBabel08242015413D

 14 13  0  0  0  0  0  0  0  0999 V2000
   -3.9523    0.2713    0.0613 C   0  0  0  0  0  0  0  0  0  0  0  0
   -2.7028   -0.6240   -0.0365 C   0  0  0  0  0  0  0  0  0  0  0  0
   -4.8464   -0.2710    0.3109 H   0  0  0  0  0  0  0  0  0  0  0  0
   -4.1745    1.0234   -0.8856 H   0  0  0  0  0  0  0  0  0  0  0  0
   -3.8743    0.7907    0.8913 H   0  0  0  0  0  0  0  0  0  0  0  0
   -1.3977    0.1585   -0.0090 C   0  0  0  0  0  0  0  0  0  0  0  0
   -2.6946   -1.3802   -0.9412 H   0  0  0  0  0  0  0  0  0  0  0  0
   -2.6264   -1.1634    0.7841 H   0  0  0  0  0  0  0  0  0  0  0  0
   -0.1585   -0.6838    0.0843 C   0  0  0  0  0  0  0  0  0  0  0  0
   -1.3868    0.8196    0.7818 H   0  0  0  0  0  0  0  0  0  0  0  0
   -1.3743    0.9111   -0.9787 H   0  0  0  0  0  0  0  0  0  0  0  0
   -0.2061   -1.2629    0.9724 H   0  0  0  0  0  0  0  0  0  0  0  0
    0.8032   -0.0608    0.0441 H   0  0  0  0  0  0  0  0  0  0  0  0
   -0.1057   -1.3383   -0.7547 H   0  0  0  0  0  0  0  0  0  0  0  0
  1  3  1  0  0  0  0
  1  5  1  0  0  0  0
  2  6  1  0  0  0  0
  2  1  1  0  0  0  0
  2  8  1  0  0  0  0
  4  1  1  0  0  0  0
  6  9  1  0  0  0  0
  6 10  1  0  0  0  0
  7  2  1  0  0  0  0
  9 12  1  0  0  0  0
 11  6  1  0  0  0  0
 13  9  1  0  0  0  0
 14  9  1  0  0  0  0
M  END
$$$$
