butane_opt
 OpenBabel08242015413D

 14 13  0  0  0  0  0  0  0  0999 V2000
   -3.9247    0.2637    0.0462 C   0  0  0  0  0  0  0  0  0  0  0  0
   -2.7019   -0.5975   -0.0023 C   0  0  0  0  0  0  0  0  0  0  0  0
   -4.8792   -0.4309    0.2762 H   0  0  0  0  0  0  0  0  0  0  0  0
   -4.0916    0.9935   -0.8883 H   0  0  0  0  0  0  0  0  0  0  0  0
   -3.8301    0.7452    0.8122 H   0  0  0  0  0  0  0  0  0  0  0  0
   -1.4168    0.1793   -0.0075 C   0  0  0  0  0  0  0  0  0  0  0  0
   -2.7479   -1.3770   -0.9336 H   0  0  0  0  0  0  0  0  0  0  0  0
   -2.6507   -1.0796    0.7660 H   0  0  0  0  0  0  0  0  0  0  0  0
   -0.1632   -0.6894    0.0586 C   0  0  0  0  0  0  0  0  0  0  0  0
   -1.4282    0.8317    0.8140 H   0  0  0  0  0  0  0  0  0  0  0  0
   -1.4295    0.8351   -0.8680 H   0  0  0  0  0  0  0  0  0  0  0  0
   -0.1381   -1.4144    1.0116 H   0  0  0  0  0  0  0  0  0  0  0  0
    0.7300   -0.0989    0.0916 H   0  0  0  0  0  0  0  0  0  0  0  0
   -0.0791   -1.3550   -0.7892 H   0  0  0  0  0  0  0  0  0  0  0  0
  1  3  1  0  0  0  0
  1  5  1  0  0  0  0
  2  1  1  0  0  0  0
  2  8  1  0  0  0  0
  4  1  1  0  0  0  0
  6  2  1  0  0  0  0
  6  9  1  0  0  0  0
  6 10  1  0  0  0  0
  7  2  1  0  0  0  0
  9 13  1  0  0  0  0
  9 12  1  0  0  0  0
 11  6  1  0  0  0  0
 14  9  1  0  0  0  0
M  END
$$$$
