14
butane_opt
C  -3.927488   0.273119  -0.022797
C  -2.690150  -0.634065   0.102941
H  -4.815093  -0.284664  -0.218822
H  -3.834938   0.834794  -0.930608
H  -4.111934   1.070220   0.908780
C  -1.413508   0.163954   0.046587
H  -2.585034  -1.243715  -0.677240
H  -2.735476  -1.322238   1.052704
C  -0.177137  -0.664752  -0.019347
H  -1.330907   0.864448   0.943233
H  -1.482021   0.693594  -0.818865
H  -0.203247  -1.306529   0.889148
H   0.738728  -0.087291  -0.085077
H  -0.171344  -1.339786  -0.901203
