butane_opt
 OpenBabel08242015413D

 14 13  0  0  0  0  0  0  0  0999 V2000
   -3.9552    0.2484    0.0389 C   0  0  0  0  0  0  0  0  0  0  0  0
   -2.7023   -0.5994    0.0165 C   0  0  0  0  0  0  0  0  0  0  0  0
   -4.8713   -0.3523   -0.0844 H   0  0  0  0  0  0  0  0  0  0  0  0
   -3.9395    0.7317   -0.7661 H   0  0  0  0  0  0  0  0  0  0  0  0
   -3.9328    1.0460    0.9832 H   0  0  0  0  0  0  0  0  0  0  0  0
   -1.4104    0.2081   -0.0072 C   0  0  0  0  0  0  0  0  0  0  0  0
   -2.7398   -1.3086   -0.8280 H   0  0  0  0  0  0  0  0  0  0  0  0
   -2.6878   -1.2039    0.8956 H   0  0  0  0  0  0  0  0  0  0  0  0
   -0.1510   -0.7105    0.0521 C   0  0  0  0  0  0  0  0  0  0  0  0
   -1.3972    0.7856    0.7700 H   0  0  0  0  0  0  0  0  0  0  0  0
   -1.3671    0.9086   -0.9464 H   0  0  0  0  0  0  0  0  0  0  0  0
   -0.0975   -1.4092    1.0347 H   0  0  0  0  0  0  0  0  0  0  0  0
    0.7589   -0.1139   -0.0334 H   0  0  0  0  0  0  0  0  0  0  0  0
   -0.1203   -1.3197   -0.7727 H   0  0  0  0  0  0  0  0  0  0  0  0
  1  5  1  0  0  0  0
  2  1  1  0  0  0  0
  2  8  1  0  0  0  0
  3  1  1  0  0  0  0
  4  1  1  0  0  0  0
  6  2  1  0  0  0  0
  6  9  1  0  0  0  0
  6 10  1  0  0  0  0
  7  2  1  0  0  0  0
  9 12  1  0  0  0  0
 11  6  1  0  0  0  0
 13  9  1  0  0  0  0
 14  9  1  0  0  0  0
M  END
$$$$
