butane_opt
 OpenBabel08242015413D

 14 13  0  0  0  0  0  0  0  0999 V2000
   -3.9278    0.2229   -0.0205 C   0  0  0  0  0  0  0  0  0  0  0  0
   -2.7083   -0.5824    0.0942 C   0  0  0  0  0  0  0  0  0  0  0  0
   -4.8334   -0.3369   -0.0784 H   0  0  0  0  0  0  0  0  0  0  0  0
   -3.9203    0.8481   -0.9061 H   0  0  0  0  0  0  0  0  0  0  0  0
   -3.9167    0.9753    0.9030 H   0  0  0  0  0  0  0  0  0  0  0  0
   -1.4229    0.2065    0.0395 C   0  0  0  0  0  0  0  0  0  0  0  0
   -2.6351   -1.2809   -0.8178 H   0  0  0  0  0  0  0  0  0  0  0  0
   -2.7586   -1.1989    1.0014 H   0  0  0  0  0  0  0  0  0  0  0  0
   -0.1562   -0.7149    0.0007 C   0  0  0  0  0  0  0  0  0  0  0  0
   -1.4472    0.8660    0.8849 H   0  0  0  0  0  0  0  0  0  0  0  0
   -1.4178    0.9094   -0.8921 H   0  0  0  0  0  0  0  0  0  0  0  0
   -0.0686   -1.2542    0.8764 H   0  0  0  0  0  0  0  0  0  0  0  0
    0.7266   -0.1855   -0.0252 H   0  0  0  0  0  0  0  0  0  0  0  0
   -0.1522   -1.4132   -0.8779 H   0  0  0  0  0  0  0  0  0  0  0  0
  1  2  1  0  0  0  0
  1  5  1  0  0  0  0
  2  8  1  0  0  0  0
  3  1  1  0  0  0  0
  4  1  1  0  0  0  0
  6  2  1  0  0  0  0
  6 10  1  0  0  0  0
  7  2  1  0  0  0  0
  9  6  1  0  0  0  0
  9 12  1  0  0  0  0
 11  6  1  0  0  0  0
 13  9  1  0  0  0  0
 14  9  1  0  0  0  0
M  END
$$$$
