14
butane_opt
C  -3.921031   0.255418  -0.011268
C  -2.695426  -0.601195   0.076153
H  -4.851800  -0.381961  -0.042144
H  -3.852083   0.995811  -1.035728
H  -4.051326   0.888840   0.810649
C  -1.413920   0.174086   0.063161
H  -2.735069  -1.299816  -0.773451
H  -2.740796  -1.257537   0.997898
C  -0.169892  -0.695864  -0.013145
H  -1.414962   0.910826   0.958108
H  -1.521047   0.806707  -0.805672
H  -0.030993  -1.284739   0.901792
H   0.773017  -0.073383  -0.074119
H  -0.199668  -1.359152  -0.883428
