butane_opt
 OpenBabel08242015413D

 14 13  0  0  0  0  0  0  0  0999 V2000
   -3.9165    0.2410    0.0377 C   0  0  0  0  0  0  0  0  0  0  0  0
   -2.7001   -0.5740    0.0278 C   0  0  0  0  0  0  0  0  0  0  0  0
   -4.8713   -0.3860   -0.1494 H   0  0  0  0  0  0  0  0  0  0  0  0
   -3.8725    0.6733   -0.7454 H   0  0  0  0  0  0  0  0  0  0  0  0
   -3.9773    1.0520    0.9959 H   0  0  0  0  0  0  0  0  0  0  0  0
   -1.4173    0.1970   -0.0268 C   0  0  0  0  0  0  0  0  0  0  0  0
   -2.7512   -1.1934   -0.7978 H   0  0  0  0  0  0  0  0  0  0  0  0
   -2.7057   -1.3252    0.9596 H   0  0  0  0  0  0  0  0  0  0  0  0
   -0.1622   -0.7166    0.0599 C   0  0  0  0  0  0  0  0  0  0  0  0
   -1.4550    0.8544    0.7898 H   0  0  0  0  0  0  0  0  0  0  0  0
   -1.5102    0.8503   -0.9035 H   0  0  0  0  0  0  0  0  0  0  0  0
   -0.1679   -1.3209    0.9290 H   0  0  0  0  0  0  0  0  0  0  0  0
    0.7277   -0.0860   -0.0166 H   0  0  0  0  0  0  0  0  0  0  0  0
   -0.0791   -1.3681   -0.7916 H   0  0  0  0  0  0  0  0  0  0  0  0
  1  5  1  0  0  0  0
  2  1  1  0  0  0  0
  2  8  1  0  0  0  0
  3  1  1  0  0  0  0
  4  1  1  0  0  0  0
  6  2  1  0  0  0  0
  6  9  1  0  0  0  0
  6 10  1  0  0  0  0
  7  2  1  0  0  0  0
  9 12  1  0  0  0  0
 11  6  1  0  0  0  0
 13  9  1  0  0  0  0
 14  9  1  0  0  0  0
M  END
$$$$
