butane_opt
 OpenBabel08242015413D

 14 13  0  0  0  0  0  0  0  0999 V2000
   -3.9691    0.2866    0.0718 C   0  0  0  0  0  0  0  0  0  0  0  0
   -2.7103   -0.6321    0.0135 C   0  0  0  0  0  0  0  0  0  0  0  0
   -4.8174   -0.2573    0.0814 H   0  0  0  0  0  0  0  0  0  0  0  0
   -4.0302    0.8704   -0.8391 H   0  0  0  0  0  0  0  0  0  0  0  0
   -3.9882    0.9822    0.9600 H   0  0  0  0  0  0  0  0  0  0  0  0
   -1.3836    0.1635   -0.0628 C   0  0  0  0  0  0  0  0  0  0  0  0
   -2.6783   -1.4840   -0.9520 H   0  0  0  0  0  0  0  0  0  0  0  0
   -2.6665   -1.2386    0.8238 H   0  0  0  0  0  0  0  0  0  0  0  0
   -0.1565   -0.6685    0.0836 C   0  0  0  0  0  0  0  0  0  0  0  0
   -1.3384    0.7667    0.7387 H   0  0  0  0  0  0  0  0  0  0  0  0
   -1.3004    0.8382   -0.9879 H   0  0  0  0  0  0  0  0  0  0  0  0
   -0.2603   -1.2305    0.9844 H   0  0  0  0  0  0  0  0  0  0  0  0
    0.7124   -0.1188    0.1576 H   0  0  0  0  0  0  0  0  0  0  0  0
   -0.0277   -1.3800   -0.7973 H   0  0  0  0  0  0  0  0  0  0  0  0
  1  3  1  0  0  0  0
  1  5  1  0  0  0  0
  2  1  1  0  0  0  0
  2  8  1  0  0  0  0
  4  1  1  0  0  0  0
  6  2  1  0  0  0  0
  6  9  1  0  0  0  0
  6 10  1  0  0  0  0
  7  2  1  0  0  0  0
  9 13  1  0  0  0  0
  9 12  1  0  0  0  0
 11  6  1  0  0  0  0
 14  9  1  0  0  0  0
M  END
$$$$
