14
butane_opt
C  -3.928539   0.271007  -0.040984
C  -2.702148  -0.622901   0.073875
H  -4.800897  -0.299737  -0.011153
H  -4.009374   0.897214  -0.955745
H  -3.961639   0.945682   0.860229
C  -1.395904   0.184213   0.079358
H  -2.607701  -1.269480  -0.736245
H  -2.740163  -1.328594   0.959765
C  -0.170522  -0.697391  -0.012601
H  -1.294812   0.911106   0.983312
H  -1.492580   0.728590  -0.734450
H  -0.097598  -1.338448   0.940920
H   0.743421  -0.097413  -0.259004
H  -0.382919  -1.226423  -0.791322
