butane_opt
 OpenBabel08242015413D

 14 13  0  0  0  0  0  0  0  0999 V2000
   -3.9556    0.2497   -0.0269 C   0  0  0  0  0  0  0  0  0  0  0  0
   -2.7126   -0.5901    0.0842 C   0  0  0  0  0  0  0  0  0  0  0  0
   -4.9071   -0.3897   -0.0506 H   0  0  0  0  0  0  0  0  0  0  0  0
   -3.8757    0.8748   -0.9384 H   0  0  0  0  0  0  0  0  0  0  0  0
   -4.1288    0.9201    0.8065 H   0  0  0  0  0  0  0  0  0  0  0  0
   -1.4058    0.2016    0.0703 C   0  0  0  0  0  0  0  0  0  0  0  0
   -2.7240   -1.2190   -0.7717 H   0  0  0  0  0  0  0  0  0  0  0  0
   -2.7551   -1.2585    1.0076 H   0  0  0  0  0  0  0  0  0  0  0  0
   -0.1342   -0.7139   -0.0247 C   0  0  0  0  0  0  0  0  0  0  0  0
   -1.3166    0.9352    0.9514 H   0  0  0  0  0  0  0  0  0  0  0  0
   -1.3627    0.6983   -0.7234 H   0  0  0  0  0  0  0  0  0  0  0  0
   -0.0087   -1.4306    0.9481 H   0  0  0  0  0  0  0  0  0  0  0  0
    0.7507   -0.1174   -0.1553 H   0  0  0  0  0  0  0  0  0  0  0  0
   -0.1765   -1.2656   -0.8543 H   0  0  0  0  0  0  0  0  0  0  0  0
  1  2  1  0  0  0  0
  1  5  1  0  0  0  0
  2  8  1  0  0  0  0
  3  1  1  0  0  0  0
  4  1  1  0  0  0  0
  6  2  1  0  0  0  0
  6 10  1  0  0  0  0
  7  2  1  0  0  0  0
  9  6  1  0  0  0  0
  9 12  1  0  0  0  0
 11  6  1  0  0  0  0
 13  9  1  0  0  0  0
 14  9  1  0  0  0  0
M  END
$$$$
