butane_opt
 OpenBabel08242015413D

 14 13  0  0  0  0  0  0  0  0999 V2000
   -3.9215    0.2459    0.0419 C   0  0  0  0  0  0  0  0  0  0  0  0
   -2.7075   -0.5991    0.0101 C   0  0  0  0  0  0  0  0  0  0  0  0
   -4.9118   -0.4148   -0.0439 H   0  0  0  0  0  0  0  0  0  0  0  0
   -3.9060    0.7943   -0.7980 H   0  0  0  0  0  0  0  0  0  0  0  0
   -3.9428    1.0165    0.9581 H   0  0  0  0  0  0  0  0  0  0  0  0
   -1.4299    0.2149   -0.0174 C   0  0  0  0  0  0  0  0  0  0  0  0
   -2.8311   -1.2793   -0.8702 H   0  0  0  0  0  0  0  0  0  0  0  0
   -2.6113   -1.1731    0.8564 H   0  0  0  0  0  0  0  0  0  0  0  0
   -0.1482   -0.7195    0.0553 C   0  0  0  0  0  0  0  0  0  0  0  0
   -1.4411    0.8844    0.8790 H   0  0  0  0  0  0  0  0  0  0  0  0
   -1.4289    0.7743   -0.8641 H   0  0  0  0  0  0  0  0  0  0  0  0
   -0.0532   -1.5127    1.0711 H   0  0  0  0  0  0  0  0  0  0  0  0
    0.7819   -0.1230   -0.0934 H   0  0  0  0  0  0  0  0  0  0  0  0
   -0.1844   -1.1496   -0.7118 H   0  0  0  0  0  0  0  0  0  0  0  0
  1  5  1  0  0  0  0
  2  1  1  0  0  0  0
  2  8  1  0  0  0  0
  3  1  1  0  0  0  0
  4  1  1  0  0  0  0
  6  2  1  0  0  0  0
  6  9  1  0  0  0  0
  6 10  1  0  0  0  0
  7  2  1  0  0  0  0
  9 12  1  0  0  0  0
 11  6  1  0  0  0  0
 13  9  1  0  0  0  0
 14  9  1  0  0  0  0
M  END
$$$$
