14
butane_opt
C  -3.943855   0.282966   0.040833
C  -2.691297  -0.627008   0.016311
H  -4.877799  -0.324474   0.072241
H  -4.019248   0.809766  -0.795960
H  -3.911695   0.982461   0.941759
C  -1.397185   0.172163  -0.029710
H  -2.706996  -1.290740  -0.839452
H  -2.693771  -1.258810   0.926025
C  -0.171381  -0.688397   0.057638
H  -1.405163   0.779732   0.779345
H  -1.337785   0.837703  -0.939685
H  -0.249193  -1.260092   0.921744
H   0.745431  -0.063149   0.188681
H  -0.121228  -1.365307  -0.830358
