14
butane_opt
C  -3.943192   0.235445  -0.044938
C  -2.714360  -0.597060   0.086922
H  -4.830475  -0.381056   0.080799
H  -4.007526   0.897483  -0.974279
H  -4.046525   0.882826   0.800534
C  -1.411481   0.225939   0.082936
H  -2.624161  -1.243078  -0.777860
H  -2.828596  -1.202249   0.983615
C  -0.140043  -0.715419  -0.018716
H  -1.354217   0.919768   0.962472
H  -1.436853   0.788418  -0.762077
H   0.065255  -1.382831   0.934977
H   0.763529  -0.155784  -0.192883
H  -0.197164  -1.386296  -0.878988
