butane_opt
 OpenBabel08242015413D

 14 13  0  0  0  0  0  0  0  0999 V2000
   -3.9201    0.2483   -0.0213 C   0  0  0  0  0  0  0  0  0  0  0  0
   -2.6869   -0.5991    0.0697 C   0  0  0  0  0  0  0  0  0  0  0  0
   -4.7830   -0.3185    0.2963 H   0  0  0  0  0  0  0  0  0  0  0  0
   -4.0687    1.1210   -1.1108 H   0  0  0  0  0  0  0  0  0  0  0  0
   -3.8926    0.6771    0.6649 H   0  0  0  0  0  0  0  0  0  0  0  0
   -1.4281    0.1975    0.0740 C   0  0  0  0  0  0  0  0  0  0  0  0
   -2.6146   -1.3566   -0.8358 H   0  0  0  0  0  0  0  0  0  0  0  0
   -2.7882   -1.2470    0.9262 H   0  0  0  0  0  0  0  0  0  0  0  0
   -0.1657   -0.6957   -0.0064 C   0  0  0  0  0  0  0  0  0  0  0  0
   -1.3503    0.9066    0.9592 H   0  0  0  0  0  0  0  0  0  0  0  0
   -1.4314    0.7697   -0.7884 H   0  0  0  0  0  0  0  0  0  0  0  0
   -0.1349   -1.2390    0.8233 H   0  0  0  0  0  0  0  0  0  0  0  0
    0.7150   -0.1016    0.0335 H   0  0  0  0  0  0  0  0  0  0  0  0
   -0.2532   -1.4825   -0.9420 H   0  0  0  0  0  0  0  0  0  0  0  0
  1  2  1  0  0  0  0
  1  3  1  0  0  0  0
  1  5  1  0  0  0  0
  2  6  1  0  0  0  0
  2  8  1  0  0  0  0
  4  1  1  0  0  0  0
  6 10  1  0  0  0  0
  7  2  1  0  0  0  0
  9 13  1  0  0  0  0
  9  6  1  0  0  0  0
  9 12  1  0  0  0  0
 11  6  1  0  0  0  0
 14  9  1  0  0  0  0
M  END
$$$$
