14
butane_opt
C  -3.931077   0.243667   0.052192
C  -2.707963  -0.599887   0.034530
H  -4.864920  -0.350912  -0.233325
H  -3.860800   0.711863  -0.736306
H  -3.998776   1.128734   1.031492
C  -1.424651   0.196672  -0.044588
H  -2.725542  -1.253551  -0.832233
H  -2.657267  -1.215112   0.887639
C  -0.142115  -0.707233   0.058663
H  -1.495655   0.868570   0.808525
H  -1.393609   0.792785  -0.937846
H  -0.163388  -1.411131   1.052520
H   0.784716  -0.101525  -0.034569
H  -0.171003  -1.250463  -0.754666
