butane_opt
 OpenBabel08242015413D

 14 13  0  0  0  0  0  0  0  0999 V2000
   -3.9432    0.2354   -0.0449 C   0  0  0  0  0  0  0  0  0  0  0  0
   -2.7144   -0.5971    0.0869 C   0  0  0  0  0  0  0  0  0  0  0  0
   -4.8305   -0.3811    0.0808 H   0  0  0  0  0  0  0  0  0  0  0  0
   -4.0075    0.8975   -0.9743 H   0  0  0  0  0  0  0  0  0  0  0  0
   -4.0465    0.8828    0.8005 H   0  0  0  0  0  0  0  0  0  0  0  0
   -1.4115    0.2259    0.0829 C   0  0  0  0  0  0  0  0  0  0  0  0
   -2.6242   -1.2431   -0.7779 H   0  0  0  0  0  0  0  0  0  0  0  0
   -2.8286   -1.2022    0.9836 H   0  0  0  0  0  0  0  0  0  0  0  0
   -0.1400   -0.7154   -0.0187 C   0  0  0  0  0  0  0  0  0  0  0  0
   -1.3542    0.9198    0.9625 H   0  0  0  0  0  0  0  0  0  0  0  0
   -1.4369    0.7884   -0.7621 H   0  0  0  0  0  0  0  0  0  0  0  0
    0.0653   -1.3828    0.9350 H   0  0  0  0  0  0  0  0  0  0  0  0
    0.7635   -0.1558   -0.1929 H   0  0  0  0  0  0  0  0  0  0  0  0
   -0.1972   -1.3863   -0.8790 H   0  0  0  0  0  0  0  0  0  0  0  0
  1  3  1  0  0  0  0
  1  2  1  0  0  0  0
  1  5  1  0  0  0  0
  2  8  1  0  0  0  0
  4  1  1  0  0  0  0
  6  2  1  0  0  0  0
  6 10  1  0  0  0  0
  7  2  1  0  0  0  0
  9  6  1  0  0  0  0
  9 12  1  0  0  0  0
 11  6  1  0  0  0  0
 13  9  1  0  0  0  0
 14  9  1  0  0  0  0
M  END
$$$$
