14
butane_opt
C  -3.955596   0.249710  -0.026878
C  -2.712616  -0.590057   0.084175
H  -4.907073  -0.389750  -0.050562
H  -3.875671   0.874754  -0.938397
H  -4.128809   0.920144   0.806544
C  -1.405822   0.201572   0.070261
H  -2.724024  -1.218957  -0.771680
H  -2.755118  -1.258502   1.007576
C  -0.134225  -0.713865  -0.024734
H  -1.316558   0.935171   0.951445
H  -1.362718   0.698324  -0.723438
H  -0.008676  -1.430619   0.948100
H   0.750739  -0.117386  -0.155267
H  -0.176511  -1.265566  -0.854302
