14
butane_opt
C  -3.952772   0.282478   0.040058
C  -2.680401  -0.626283   0.014084
H  -4.845538  -0.279738  -0.122241
H  -3.930985   0.803799  -0.798532
H  -3.983090   1.103656   1.040973
C  -1.397352   0.158840  -0.015029
H  -2.725877  -1.329068  -0.834407
H  -2.725621  -1.308222   0.914119
C  -0.170049  -0.686308   0.047334
H  -1.297468   0.806296   0.851323
H  -1.439994   0.786211  -0.878828
H  -0.251036  -1.424691   1.055222
H   0.812861   0.012885  -0.056063
H  -0.237093  -1.169447  -0.737220
