butane_opt
 OpenBabel08242015413D

 14 13  0  0  0  0  0  0  0  0999 V2000
   -3.9417    0.2510    0.0544 C   0  0  0  0  0  0  0  0  0  0  0  0
   -2.7096   -0.6087   -0.0037 C   0  0  0  0  0  0  0  0  0  0  0  0
   -4.8569   -0.3200    0.1967 H   0  0  0  0  0  0  0  0  0  0  0  0
   -4.0459    0.9454   -0.8806 H   0  0  0  0  0  0  0  0  0  0  0  0
   -3.9226    0.8835    0.8877 H   0  0  0  0  0  0  0  0  0  0  0  0
   -1.4023    0.2034   -0.0267 C   0  0  0  0  0  0  0  0  0  0  0  0
   -2.7626   -1.3698   -0.9135 H   0  0  0  0  0  0  0  0  0  0  0  0
   -2.7357   -1.1460    0.8226 H   0  0  0  0  0  0  0  0  0  0  0  0
   -0.1502   -0.7114    0.0678 C   0  0  0  0  0  0  0  0  0  0  0  0
   -1.3919    0.8665    0.8219 H   0  0  0  0  0  0  0  0  0  0  0  0
   -1.3719    0.8437   -0.8926 H   0  0  0  0  0  0  0  0  0  0  0  0
   -0.1451   -1.3414    0.9744 H   0  0  0  0  0  0  0  0  0  0  0  0
    0.7523   -0.1156    0.0458 H   0  0  0  0  0  0  0  0  0  0  0  0
   -0.0863   -1.3295   -0.7232 H   0  0  0  0  0  0  0  0  0  0  0  0
  1  3  1  0  0  0  0
  1  5  1  0  0  0  0
  2  1  1  0  0  0  0
  2  8  1  0  0  0  0
  4  1  1  0  0  0  0
  6  2  1  0  0  0  0
  6  9  1  0  0  0  0
  6 10  1  0  0  0  0
  7  2  1  0  0  0  0
  9 12  1  0  0  0  0
 11  6  1  0  0  0  0
 13  9  1  0  0  0  0
 14  9  1  0  0  0  0
M  END
$$$$
