14
butane_opt
C  -3.943172   0.272926   0.029046
C  -2.685925  -0.615111   0.014806
H  -4.882741  -0.336884   0.038317
H  -3.999945   0.873431  -0.871430
H  -3.977373   1.002816   0.919394
C  -1.401441   0.161081   0.019229
H  -2.696861  -1.363331  -0.888452
H  -2.687211  -1.209446   0.883722
C  -0.177533  -0.686399   0.044001
H  -1.313088   0.808391   0.845487
H  -1.367324   0.845411  -0.889109
H  -0.139653  -1.400449   1.025057
H   0.756227  -0.053850  -0.142293
H  -0.211093  -1.227793  -0.749029
