butane_opt
 OpenBabel08242015413D

 14 13  0  0  0  0  0  0  0  0999 V2000
   -3.9366    0.2405   -0.0199 C   0  0  0  0  0  0  0  0  0  0  0  0
   -2.6813   -0.5910    0.0902 C   0  0  0  0  0  0  0  0  0  0  0  0
   -4.8320   -0.3973    0.1173 H   0  0  0  0  0  0  0  0  0  0  0  0
   -3.8465    0.9869   -1.0352 H   0  0  0  0  0  0  0  0  0  0  0  0
   -3.9431    0.7613    0.7317 H   0  0  0  0  0  0  0  0  0  0  0  0
   -1.4210    0.2178    0.0438 C   0  0  0  0  0  0  0  0  0  0  0  0
   -2.8132   -1.1947   -0.7400 H   0  0  0  0  0  0  0  0  0  0  0  0
   -2.7059   -1.2989    1.0681 H   0  0  0  0  0  0  0  0  0  0  0  0
   -0.1678   -0.7112   -0.0196 C   0  0  0  0  0  0  0  0  0  0  0  0
   -1.3963    0.9433    0.9125 H   0  0  0  0  0  0  0  0  0  0  0  0
   -1.4712    0.7884   -0.8193 H   0  0  0  0  0  0  0  0  0  0  0  0
   -0.2107   -1.1542    0.7982 H   0  0  0  0  0  0  0  0  0  0  0  0
    0.7157   -0.1426    0.2525 H   0  0  0  0  0  0  0  0  0  0  0  0
   -0.0356   -1.6443   -1.0179 H   0  0  0  0  0  0  0  0  0  0  0  0
  1  2  1  0  0  0  0
  1  3  1  0  0  0  0
  1  5  1  0  0  0  0
  2  8  1  0  0  0  0
  4  1  1  0  0  0  0
  6  2  1  0  0  0  0
  6 10  1  0  0  0  0
  7  2  1  0  0  0  0
  9  6  1  0  0  0  0
  9 13  1  0  0  0  0
  9 12  1  0  0  0  0
 11  6  1  0  0  0  0
 14  9  1  0  0  0  0
M  END
$$$$
