butane_opt
 OpenBabel08242015413D

 14 13  0  0  0  0  0  0  0  0999 V2000
   -3.9142    0.2450   -0.0366 C   0  0  0  0  0  0  0  0  0  0  0  0
   -2.7094   -0.5951    0.0762 C   0  0  0  0  0  0  0  0  0  0  0  0
   -4.8359   -0.3657    0.0772 H   0  0  0  0  0  0  0  0  0  0  0  0
   -3.8627    0.9237   -0.9935 H   0  0  0  0  0  0  0  0  0  0  0  0
   -3.9837    0.8190    0.8054 H   0  0  0  0  0  0  0  0  0  0  0  0
   -1.4161    0.2210    0.0616 C   0  0  0  0  0  0  0  0  0  0  0  0
   -2.7673   -1.1952   -0.7252 H   0  0  0  0  0  0  0  0  0  0  0  0
   -2.6927   -1.2606    0.9896 H   0  0  0  0  0  0  0  0  0  0  0  0
   -0.1629   -0.7198   -0.0144 C   0  0  0  0  0  0  0  0  0  0  0  0
   -1.3518    1.0002    0.9931 H   0  0  0  0  0  0  0  0  0  0  0  0
   -1.4508    0.7212   -0.6709 H   0  0  0  0  0  0  0  0  0  0  0  0
   -0.1030   -1.4058    0.9221 H   0  0  0  0  0  0  0  0  0  0  0  0
    0.7492   -0.1417   -0.1186 H   0  0  0  0  0  0  0  0  0  0  0  0
   -0.2741   -1.3864   -0.8897 H   0  0  0  0  0  0  0  0  0  0  0  0
  1  2  1  0  0  0  0
  1  3  1  0  0  0  0
  1  5  1  0  0  0  0
  2  8  1  0  0  0  0
  4  1  1  0  0  0  0
  6  2  1  0  0  0  0
  6 10  1  0  0  0  0
  7  2  1  0  0  0  0
  9  6  1  0  0  0  0
  9 12  1  0  0  0  0
 11  6  1  0  0  0  0
 13  9  1  0  0  0  0
 14  9  1  0  0  0  0
M  END
$$$$
