14
butane_opt
C  -3.927423   0.259496  -0.009216
C  -2.699502  -0.612581   0.059737
H  -4.831890  -0.334312   0.053439
H  -3.911838   0.943731  -0.947495
H  -4.001138   0.850000   0.799529
C  -1.403145   0.193523   0.058592
H  -2.707554  -1.303108  -0.797916
H  -2.755849  -1.219440   0.939843
C  -0.174738  -0.705647   0.000697
H  -1.354337   0.923156   0.950608
H  -1.473937   0.828196  -0.858507
H  -0.087598  -1.340867   0.897000
H   0.752868  -0.090790  -0.091769
H  -0.195476  -1.341543  -0.819611
