butane_opt
 OpenBabel08242015413D

 14 13  0  0  0  0  0  0  0  0999 V2000
   -3.9268    0.2936   -0.0064 C   0  0  0  0  0  0  0  0  0  0  0  0
   -2.6939   -0.6589    0.0657 C   0  0  0  0  0  0  0  0  0  0  0  0
   -4.8103   -0.2556    0.0636 H   0  0  0  0  0  0  0  0  0  0  0  0
   -4.0058    0.8225   -0.8848 H   0  0  0  0  0  0  0  0  0  0  0  0
   -3.9654    1.0390    0.9075 H   0  0  0  0  0  0  0  0  0  0  0  0
   -1.4078    0.1689    0.0013 C   0  0  0  0  0  0  0  0  0  0  0  0
   -2.7106   -1.2580   -0.6990 H   0  0  0  0  0  0  0  0  0  0  0  0
   -2.7283   -1.3155    1.0054 H   0  0  0  0  0  0  0  0  0  0  0  0
   -0.1830   -0.6850    0.0229 C   0  0  0  0  0  0  0  0  0  0  0  0
   -1.3687    0.8300    0.8194 H   0  0  0  0  0  0  0  0  0  0  0  0
   -1.3575    0.8080   -0.8720 H   0  0  0  0  0  0  0  0  0  0  0  0
   -0.2319   -1.0890    0.7782 H   0  0  0  0  0  0  0  0  0  0  0  0
    0.7887   -0.0406    0.1747 H   0  0  0  0  0  0  0  0  0  0  0  0
   -0.1062   -1.4266   -0.8624 H   0  0  0  0  0  0  0  0  0  0  0  0
  1  3  1  0  0  0  0
  1  2  1  0  0  0  0
  1  5  1  0  0  0  0
  2  8  1  0  0  0  0
  4  1  1  0  0  0  0
  6  9  1  0  0  0  0
  6  2  1  0  0  0  0
  6 10  1  0  0  0  0
  7  2  1  0  0  0  0
  9 13  1  0  0  0  0
  9 12  1  0  0  0  0
 11  6  1  0  0  0  0
 14  9  1  0  0  0  0
M  END
$$$$
