butane_opt
 OpenBabel08242015413D

 14 13  0  0  0  0  0  0  0  0999 V2000
   -3.9673    0.2856    0.0273 C   0  0  0  0  0  0  0  0  0  0  0  0
   -2.7138   -0.6338    0.0118 C   0  0  0  0  0  0  0  0  0  0  0  0
   -4.8227   -0.3145    0.0001 H   0  0  0  0  0  0  0  0  0  0  0  0
   -3.9740    0.8695   -0.8305 H   0  0  0  0  0  0  0  0  0  0  0  0
   -4.0045    0.9500    0.9072 H   0  0  0  0  0  0  0  0  0  0  0  0
   -1.3768    0.1845    0.0343 C   0  0  0  0  0  0  0  0  0  0  0  0
   -2.6457   -1.3791   -0.8688 H   0  0  0  0  0  0  0  0  0  0  0  0
   -2.7151   -1.2152    0.8676 H   0  0  0  0  0  0  0  0  0  0  0  0
   -0.1651   -0.6948    0.0435 C   0  0  0  0  0  0  0  0  0  0  0  0
   -1.3929    0.8125    0.7988 H   0  0  0  0  0  0  0  0  0  0  0  0
   -1.3278    0.8018   -0.8646 H   0  0  0  0  0  0  0  0  0  0  0  0
   -0.0394   -1.4214    1.0173 H   0  0  0  0  0  0  0  0  0  0  0  0
    0.8021   -0.0487   -0.2654 H   0  0  0  0  0  0  0  0  0  0  0  0
   -0.2368   -1.2030   -0.7106 H   0  0  0  0  0  0  0  0  0  0  0  0
  1  5  1  0  0  0  0
  2  1  1  0  0  0  0
  2  6  1  0  0  0  0
  2  8  1  0  0  0  0
  3  1  1  0  0  0  0
  4  1  1  0  0  0  0
  6  9  1  0  0  0  0
  6 10  1  0  0  0  0
  7  2  1  0  0  0  0
  9 12  1  0  0  0  0
 11  6  1  0  0  0  0
 13  9  1  0  0  0  0
 14  9  1  0  0  0  0
M  END
$$$$
