14
butane_opt
C  -3.934981   0.282844  -0.004314
C  -2.690586  -0.638672   0.043402
H  -4.853750  -0.263502   0.176979
H  -4.052266   1.043704  -1.010858
H  -3.913387   0.803036   0.724000
C  -1.393469   0.171769   0.056903
H  -2.563418  -1.306686  -0.801827
H  -2.729337  -1.321246   0.967396
C  -0.186086  -0.667031   0.001669
H  -1.363064   0.869781   0.967071
H  -1.375943   0.677008  -0.757223
H  -0.118518  -1.305164   0.899432
H   0.682820  -0.114466  -0.028283
H  -0.275558  -1.331325  -0.875964
