14
butane_opt
C  -3.936581   0.240455  -0.019911
C  -2.681290  -0.590960   0.090161
H  -4.832021  -0.397343   0.117304
H  -3.846473   0.986886  -1.035158
H  -3.943073   0.761283   0.731670
C  -1.421022   0.217756   0.043773
H  -2.813183  -1.194688  -0.739979
H  -2.705887  -1.298936   1.068118
C  -0.167840  -0.711181  -0.019581
H  -1.396255   0.943269   0.912491
H  -1.471183   0.788391  -0.819286
H  -0.210692  -1.154238   0.798218
H   0.715749  -0.142638   0.252532
H  -0.035584  -1.644336  -1.017874
