butane_opt
 OpenBabel08242015413D

 14 13  0  0  0  0  0  0  0  0999 V2000
   -3.9250    0.2464   -0.0195 C   0  0  0  0  0  0  0  0  0  0  0  0
   -2.7098   -0.5866    0.0803 C   0  0  0  0  0  0  0  0  0  0  0  0
   -4.8908   -0.3740    0.0931 H   0  0  0  0  0  0  0  0  0  0  0  0
   -3.9512    0.9176   -0.9619 H   0  0  0  0  0  0  0  0  0  0  0  0
   -3.8616    0.9001    0.7947 H   0  0  0  0  0  0  0  0  0  0  0  0
   -1.4068    0.1894    0.0270 C   0  0  0  0  0  0  0  0  0  0  0  0
   -2.6543   -1.1899   -0.6624 H   0  0  0  0  0  0  0  0  0  0  0  0
   -2.7041   -1.3181    1.0422 H   0  0  0  0  0  0  0  0  0  0  0  0
   -0.1712   -0.7084   -0.0057 C   0  0  0  0  0  0  0  0  0  0  0  0
   -1.3783    0.9442    0.9329 H   0  0  0  0  0  0  0  0  0  0  0  0
   -1.3769    0.8052   -0.8610 H   0  0  0  0  0  0  0  0  0  0  0  0
   -0.2217   -1.1766    0.8179 H   0  0  0  0  0  0  0  0  0  0  0  0
    0.7146   -0.1469    0.2495 H   0  0  0  0  0  0  0  0  0  0  0  0
   -0.1300   -1.5455   -1.0119 H   0  0  0  0  0  0  0  0  0  0  0  0
  1  2  1  0  0  0  0
  1  3  1  0  0  0  0
  1  5  1  0  0  0  0
  2  8  1  0  0  0  0
  4  1  1  0  0  0  0
  6  2  1  0  0  0  0
  6 10  1  0  0  0  0
  7  2  1  0  0  0  0
  9  6  1  0  0  0  0
  9 13  1  0  0  0  0
  9 12  1  0  0  0  0
 11  6  1  0  0  0  0
 14  9  1  0  0  0  0
M  END
$$$$
