14
butane_opt
C  -3.959035   0.249361   0.045751
C  -2.706232  -0.617070   0.042527
H  -4.826781  -0.277406  -0.270796
H  -3.871988   0.678462  -0.724064
H  -4.054634   1.123281   1.037074
C  -1.401332   0.212266  -0.029157
H  -2.778771  -1.301548  -0.830156
H  -2.749400  -1.168834   0.892487
C  -0.143421  -0.699867   0.046514
H  -1.337147   0.797333   0.761056
H  -1.438768   0.857143  -0.968463
H  -0.130573  -1.459441   1.061973
H   0.756251  -0.119601  -0.019964
H  -0.077916  -1.338703  -0.735895
