butane_opt
 OpenBabel08242015413D

 14 13  0  0  0  0  0  0  0  0999 V2000
   -3.9586    0.2500   -0.0291 C   0  0  0  0  0  0  0  0  0  0  0  0
   -2.7058   -0.6036    0.0701 C   0  0  0  0  0  0  0  0  0  0  0  0
   -4.9114   -0.3424    0.0288 H   0  0  0  0  0  0  0  0  0  0  0  0
   -3.9391    0.9414   -0.9955 H   0  0  0  0  0  0  0  0  0  0  0  0
   -4.0125    0.8110    0.7515 H   0  0  0  0  0  0  0  0  0  0  0  0
   -1.3930    0.2007    0.0984 C   0  0  0  0  0  0  0  0  0  0  0  0
   -2.7370   -1.2684   -0.7763 H   0  0  0  0  0  0  0  0  0  0  0  0
   -2.7693   -1.2004    0.9724 H   0  0  0  0  0  0  0  0  0  0  0  0
   -0.1526   -0.7063   -0.0122 C   0  0  0  0  0  0  0  0  0  0  0  0
   -1.4019    0.9575    0.9962 H   0  0  0  0  0  0  0  0  0  0  0  0
   -1.3450    0.8356   -0.8187 H   0  0  0  0  0  0  0  0  0  0  0  0
    0.0905   -1.4199    0.8774 H   0  0  0  0  0  0  0  0  0  0  0  0
    0.7071   -0.1591   -0.2642 H   0  0  0  0  0  0  0  0  0  0  0  0
   -0.1819   -1.3268   -0.8706 H   0  0  0  0  0  0  0  0  0  0  0  0
  1  3  1  0  0  0  0
  1  2  1  0  0  0  0
  1  5  1  0  0  0  0
  2  6  1  0  0  0  0
  2  8  1  0  0  0  0
  4  1  1  0  0  0  0
  6 10  1  0  0  0  0
  7  2  1  0  0  0  0
  9  6  1  0  0  0  0
  9 12  1  0  0  0  0
 11  6  1  0  0  0  0
 13  9  1  0  0  0  0
 14  9  1  0  0  0  0
M  END
$$$$
