butane_opt
 OpenBabel08242015413D

 14 13  0  0  0  0  0  0  0  0999 V2000
   -3.9200    0.2417    0.0562 C   0  0  0  0  0  0  0  0  0  0  0  0
   -2.7256   -0.5833   -0.0124 C   0  0  0  0  0  0  0  0  0  0  0  0
   -4.8407   -0.3756   -0.0357 H   0  0  0  0  0  0  0  0  0  0  0  0
   -3.8851    0.7482   -0.7722 H   0  0  0  0  0  0  0  0  0  0  0  0
   -3.8750    1.0462    0.9817 H   0  0  0  0  0  0  0  0  0  0  0  0
   -1.4179    0.2059   -0.0276 C   0  0  0  0  0  0  0  0  0  0  0  0
   -2.8313   -1.3105   -0.8666 H   0  0  0  0  0  0  0  0  0  0  0  0
   -2.6123   -1.1896    0.8380 H   0  0  0  0  0  0  0  0  0  0  0  0
   -0.1576   -0.7189    0.0749 C   0  0  0  0  0  0  0  0  0  0  0  0
   -1.4333    0.9578    0.8585 H   0  0  0  0  0  0  0  0  0  0  0  0
   -1.4087    0.8129   -0.9000 H   0  0  0  0  0  0  0  0  0  0  0  0
   -0.1111   -1.5827    1.1211 H   0  0  0  0  0  0  0  0  0  0  0  0
    0.8040   -0.1144   -0.2003 H   0  0  0  0  0  0  0  0  0  0  0  0
   -0.1788   -1.2033   -0.6562 H   0  0  0  0  0  0  0  0  0  0  0  0
  1  5  1  0  0  0  0
  2  1  1  0  0  0  0
  2  8  1  0  0  0  0
  3  1  1  0  0  0  0
  4  1  1  0  0  0  0
  6  2  1  0  0  0  0
  6  9  1  0  0  0  0
  6 10  1  0  0  0  0
  7  2  1  0  0  0  0
  9 12  1  0  0  0  0
 11  6  1  0  0  0  0
 13  9  1  0  0  0  0
 14  9  1  0  0  0  0
M  END
$$$$
