butane_opt
 OpenBabel08242015413D

 14 13  0  0  0  0  0  0  0  0999 V2000
   -3.8991    0.2520   -0.0289 C   0  0  0  0  0  0  0  0  0  0  0  0
   -2.7223   -0.6068    0.0871 C   0  0  0  0  0  0  0  0  0  0  0  0
   -4.8513   -0.4049    0.0219 H   0  0  0  0  0  0  0  0  0  0  0  0
   -3.7901    0.9933   -0.9861 H   0  0  0  0  0  0  0  0  0  0  0  0
   -4.0593    0.8051    0.7371 H   0  0  0  0  0  0  0  0  0  0  0  0
   -1.4231    0.2114    0.0846 C   0  0  0  0  0  0  0  0  0  0  0  0
   -2.6685   -1.2475   -0.7456 H   0  0  0  0  0  0  0  0  0  0  0  0
   -2.7678   -1.1714    0.9279 H   0  0  0  0  0  0  0  0  0  0  0  0
   -0.1650   -0.7196   -0.0213 C   0  0  0  0  0  0  0  0  0  0  0  0
   -1.4058    0.9298    0.9967 H   0  0  0  0  0  0  0  0  0  0  0  0
   -1.4616    0.7801   -0.7881 H   0  0  0  0  0  0  0  0  0  0  0  0
    0.0002   -1.3625    0.8807 H   0  0  0  0  0  0  0  0  0  0  0  0
    0.7467   -0.0918   -0.1678 H   0  0  0  0  0  0  0  0  0  0  0  0
   -0.2499   -1.3515   -0.8946 H   0  0  0  0  0  0  0  0  0  0  0  0
  1  3  1  0  0  0  0
  1  2  1  0  0  0  0
  1  5  1  0  0  0  0
  2  8  1  0  0  0  0
  4  1  1  0  0  0  0
  6  2  1  0  0  0  0
  6 10  1  0  0  0  0
  7  2  1  0  0  0  0
  9  6  1  0  0  0  0
  9 12  1  0  0  0  0
 11  6  1  0  0  0  0
 13  9  1  0  0  0  0
 14  9  1  0  0  0  0
M  END
$$$$
