butane_opt
 OpenBabel08242015413D

 14 13  0  0  0  0  0  0  0  0999 V2000
   -3.9590    0.2494    0.0458 C   0  0  0  0  0  0  0  0  0  0  0  0
   -2.7062   -0.6171    0.0425 C   0  0  0  0  0  0  0  0  0  0  0  0
   -4.8268   -0.2774   -0.2708 H   0  0  0  0  0  0  0  0  0  0  0  0
   -3.8720    0.6785   -0.7241 H   0  0  0  0  0  0  0  0  0  0  0  0
   -4.0546    1.1233    1.0371 H   0  0  0  0  0  0  0  0  0  0  0  0
   -1.4013    0.2123   -0.0292 C   0  0  0  0  0  0  0  0  0  0  0  0
   -2.7788   -1.3015   -0.8302 H   0  0  0  0  0  0  0  0  0  0  0  0
   -2.7494   -1.1688    0.8925 H   0  0  0  0  0  0  0  0  0  0  0  0
   -0.1434   -0.6999    0.0465 C   0  0  0  0  0  0  0  0  0  0  0  0
   -1.3371    0.7973    0.7611 H   0  0  0  0  0  0  0  0  0  0  0  0
   -1.4388    0.8571   -0.9685 H   0  0  0  0  0  0  0  0  0  0  0  0
   -0.1306   -1.4594    1.0620 H   0  0  0  0  0  0  0  0  0  0  0  0
    0.7563   -0.1196   -0.0200 H   0  0  0  0  0  0  0  0  0  0  0  0
   -0.0779   -1.3387   -0.7359 H   0  0  0  0  0  0  0  0  0  0  0  0
  1  5  1  0  0  0  0
  2  1  1  0  0  0  0
  2  8  1  0  0  0  0
  3  1  1  0  0  0  0
  4  1  1  0  0  0  0
  6  2  1  0  0  0  0
  6  9  1  0  0  0  0
  6 10  1  0  0  0  0
  7  2  1  0  0  0  0
  9 12  1  0  0  0  0
 11  6  1  0  0  0  0
 13  9  1  0  0  0  0
 14  9  1  0  0  0  0
M  END
$$$$
