butane_opt
 OpenBabel08242015413D

 14 13  0  0  0  0  0  0  0  0999 V2000
   -3.9587    0.2619    0.0364 C   0  0  0  0  0  0  0  0  0  0  0  0
   -2.7038   -0.6132    0.0125 C   0  0  0  0  0  0  0  0  0  0  0  0
   -4.8847   -0.3251    0.1320 H   0  0  0  0  0  0  0  0  0  0  0  0
   -4.0386    0.9605   -0.9191 H   0  0  0  0  0  0  0  0  0  0  0  0
   -3.9083    0.8303    0.8181 H   0  0  0  0  0  0  0  0  0  0  0  0
   -1.4014    0.1823    0.0046 C   0  0  0  0  0  0  0  0  0  0  0  0
   -2.7562   -1.2726   -0.8359 H   0  0  0  0  0  0  0  0  0  0  0  0
   -2.6907   -1.2135    0.8934 H   0  0  0  0  0  0  0  0  0  0  0  0
   -0.1468   -0.6940    0.0398 C   0  0  0  0  0  0  0  0  0  0  0  0
   -1.4276    0.9183    0.8990 H   0  0  0  0  0  0  0  0  0  0  0  0
   -1.3479    0.7691   -0.8661 H   0  0  0  0  0  0  0  0  0  0  0  0
   -0.1179   -1.3391    0.9379 H   0  0  0  0  0  0  0  0  0  0  0  0
    0.7518   -0.1031    0.0288 H   0  0  0  0  0  0  0  0  0  0  0  0
   -0.0778   -1.3405   -0.7850 H   0  0  0  0  0  0  0  0  0  0  0  0
  1  3  1  0  0  0  0
  1  5  1  0  0  0  0
  2  1  1  0  0  0  0
  2  8  1  0  0  0  0
  4  1  1  0  0  0  0
  6  2  1  0  0  0  0
  6  9  1  0  0  0  0
  6 10  1  0  0  0  0
  7  2  1  0  0  0  0
  9 12  1  0  0  0  0
 11  6  1  0  0  0  0
 13  9  1  0  0  0  0
 14  9  1  0  0  0  0
M  END
$$$$
