14
butane_opt
C  -3.958594   0.250008  -0.029083
C  -2.705795  -0.603603   0.070136
H  -4.911385  -0.342371   0.028769
H  -3.939109   0.941402  -0.995541
H  -4.012472   0.811016   0.751456
C  -1.393015   0.200704   0.098351
H  -2.736983  -1.268415  -0.776270
H  -2.769332  -1.200372   0.972411
C  -0.152587  -0.706296  -0.012170
H  -1.401910   0.957516   0.996185
H  -1.344993   0.835560  -0.818733
H   0.090457  -1.419871   0.877450
H   0.707147  -0.159095  -0.264194
H  -0.181866  -1.326808  -0.870559
