butane_opt
 OpenBabel08242015413D

 14 13  0  0  0  0  0  0  0  0999 V2000
   -3.9267    0.2283   -0.0496 C   0  0  0  0  0  0  0  0  0  0  0  0
   -2.7061   -0.5715    0.1125 C   0  0  0  0  0  0  0  0  0  0  0  0
   -4.8332   -0.3677   -0.1344 H   0  0  0  0  0  0  0  0  0  0  0  0
   -3.8570    0.8166   -0.9403 H   0  0  0  0  0  0  0  0  0  0  0  0
   -3.9435    1.0384    0.9053 H   0  0  0  0  0  0  0  0  0  0  0  0
   -1.4227    0.1890    0.0546 C   0  0  0  0  0  0  0  0  0  0  0  0
   -2.6085   -1.1752   -0.6398 H   0  0  0  0  0  0  0  0  0  0  0  0
   -2.7960   -1.3083    1.1184 H   0  0  0  0  0  0  0  0  0  0  0  0
   -0.1581   -0.7146   -0.0230 C   0  0  0  0  0  0  0  0  0  0  0  0
   -1.3669    0.9037    0.9526 H   0  0  0  0  0  0  0  0  0  0  0  0
   -1.5435    0.7961   -0.8275 H   0  0  0  0  0  0  0  0  0  0  0  0
   -0.0629   -1.2246    0.8154 H   0  0  0  0  0  0  0  0  0  0  0  0
    0.7681   -0.1030    0.0279 H   0  0  0  0  0  0  0  0  0  0  0  0
   -0.2109   -1.4256   -0.9615 H   0  0  0  0  0  0  0  0  0  0  0  0
  1  2  1  0  0  0  0
  1  5  1  0  0  0  0
  2  8  1  0  0  0  0
  3  1  1  0  0  0  0
  4  1  1  0  0  0  0
  6  2  1  0  0  0  0
  6 10  1  0  0  0  0
  7  2  1  0  0  0  0
  9 13  1  0  0  0  0
  9  6  1  0  0  0  0
  9 12  1  0  0  0  0
 11  6  1  0  0  0  0
 14  9  1  0  0  0  0
M  END
$$$$
