14
butane_opt
C  -3.937730   0.280686  -0.005972
C  -2.691091  -0.633132   0.067138
H  -4.832705  -0.257659  -0.106866
H  -3.889097   0.905266  -0.922449
H  -4.127591   0.942312   0.869200
C  -1.405223   0.154361   0.054711
H  -2.708808  -1.340140  -0.824922
H  -2.690651  -1.298915   0.950026
C  -0.163803  -0.659389   0.009983
H  -1.364317   0.856728   0.917401
H  -1.479491   0.795604  -0.822090
H  -0.093534  -1.379459   0.962734
H   0.790552  -0.058266  -0.232150
H  -0.267615  -1.332522  -0.858240
