butane_opt
 OpenBabel08242015413D

 14 13  0  0  0  0  0  0  0  0999 V2000
   -3.9377    0.2807   -0.0060 C   0  0  0  0  0  0  0  0  0  0  0  0
   -2.6911   -0.6331    0.0671 C   0  0  0  0  0  0  0  0  0  0  0  0
   -4.8327   -0.2577   -0.1069 H   0  0  0  0  0  0  0  0  0  0  0  0
   -3.8891    0.9053   -0.9224 H   0  0  0  0  0  0  0  0  0  0  0  0
   -4.1276    0.9423    0.8692 H   0  0  0  0  0  0  0  0  0  0  0  0
   -1.4052    0.1544    0.0547 C   0  0  0  0  0  0  0  0  0  0  0  0
   -2.7088   -1.3401   -0.8249 H   0  0  0  0  0  0  0  0  0  0  0  0
   -2.6907   -1.2989    0.9500 H   0  0  0  0  0  0  0  0  0  0  0  0
   -0.1638   -0.6594    0.0100 C   0  0  0  0  0  0  0  0  0  0  0  0
   -1.3643    0.8567    0.9174 H   0  0  0  0  0  0  0  0  0  0  0  0
   -1.4795    0.7956   -0.8221 H   0  0  0  0  0  0  0  0  0  0  0  0
   -0.0935   -1.3795    0.9627 H   0  0  0  0  0  0  0  0  0  0  0  0
    0.7906   -0.0583   -0.2321 H   0  0  0  0  0  0  0  0  0  0  0  0
   -0.2676   -1.3325   -0.8582 H   0  0  0  0  0  0  0  0  0  0  0  0
  1  2  1  0  0  0  0
  1  5  1  0  0  0  0
  2  8  1  0  0  0  0
  3  1  1  0  0  0  0
  4  1  1  0  0  0  0
  6  2  1  0  0  0  0
  6 10  1  0  0  0  0
  7  2  1  0  0  0  0
  9  6  1  0  0  0  0
  9 12  1  0  0  0  0
 11  6  1  0  0  0  0
 13  9  1  0  0  0  0
 14  9  1  0  0  0  0
M  END
$$$$
