14
butane_opt
C  -3.978177   0.269657  -0.026372
C  -2.697793  -0.632659   0.104964
H  -4.902025  -0.296064  -0.236954
H  -3.929779   0.803696  -0.860405
H  -4.074900   1.096386   0.902997
C  -1.393543   0.185118   0.031331
H  -2.690190  -1.204287  -0.692085
H  -2.638577  -1.384958   1.050630
C  -0.138243  -0.685256  -0.007999
H  -1.344219   0.846823   0.858910
H  -1.394776   0.745313  -0.768668
H  -0.123412  -1.251990   0.855871
H   0.789977  -0.054481  -0.007370
H  -0.214151  -1.419075  -0.891792
