butane_opt
 OpenBabel08242015413D

 14 13  0  0  0  0  0  0  0  0999 V2000
   -3.9538    0.2554    0.0585 C   0  0  0  0  0  0  0  0  0  0  0  0
   -2.7098   -0.5984   -0.0092 C   0  0  0  0  0  0  0  0  0  0  0  0
   -4.9003   -0.3562    0.1253 H   0  0  0  0  0  0  0  0  0  0  0  0
   -4.0361    0.9071   -0.8573 H   0  0  0  0  0  0  0  0  0  0  0  0
   -3.8735    0.8682    0.8939 H   0  0  0  0  0  0  0  0  0  0  0  0
   -1.4084    0.1945   -0.0282 C   0  0  0  0  0  0  0  0  0  0  0  0
   -2.7895   -1.2938   -0.8808 H   0  0  0  0  0  0  0  0  0  0  0  0
   -2.6709   -1.2283    0.8733 H   0  0  0  0  0  0  0  0  0  0  0  0
   -0.1376   -0.6987    0.0662 C   0  0  0  0  0  0  0  0  0  0  0  0
   -1.3747    0.8720    0.8229 H   0  0  0  0  0  0  0  0  0  0  0  0
   -1.3476    0.8151   -0.8891 H   0  0  0  0  0  0  0  0  0  0  0  0
   -0.1893   -1.3852    0.9869 H   0  0  0  0  0  0  0  0  0  0  0  0
    0.7256   -0.1396    0.0999 H   0  0  0  0  0  0  0  0  0  0  0  0
   -0.0446   -1.3740   -0.7921 H   0  0  0  0  0  0  0  0  0  0  0  0
  1  3  1  0  0  0  0
  1  5  1  0  0  0  0
  2  1  1  0  0  0  0
  2  8  1  0  0  0  0
  4  1  1  0  0  0  0
  6  2  1  0  0  0  0
  6  9  1  0  0  0  0
  6 10  1  0  0  0  0
  7  2  1  0  0  0  0
  9 13  1  0  0  0  0
  9 12  1  0  0  0  0
 11  6  1  0  0  0  0
 14  9  1  0  0  0  0
M  END
$$$$
