14
butane_opt
C  -3.974700   0.259431   0.046816
C  -2.710379  -0.604413  -0.000106
H  -4.898358  -0.358803   0.202921
H  -3.992994   0.884918  -0.802533
H  -3.832045   0.938323   0.924339
C  -1.398033   0.185950  -0.034464
H  -2.744582  -1.339663  -0.861689
H  -2.779692  -1.155344   0.835244
C  -0.135543  -0.692626   0.078063
H  -1.406303   0.775765   0.764646
H  -1.348066   0.896485  -0.964492
H  -0.099449  -1.311585   0.986541
H   0.731344  -0.125176   0.138707
H  -0.045254  -1.462157  -0.862793
