butane_opt
 OpenBabel08242015413D

 14 13  0  0  0  0  0  0  0  0999 V2000
   -3.9782    0.2697   -0.0264 C   0  0  0  0  0  0  0  0  0  0  0  0
   -2.6978   -0.6327    0.1050 C   0  0  0  0  0  0  0  0  0  0  0  0
   -4.9020   -0.2961   -0.2370 H   0  0  0  0  0  0  0  0  0  0  0  0
   -3.9298    0.8037   -0.8604 H   0  0  0  0  0  0  0  0  0  0  0  0
   -4.0749    1.0964    0.9030 H   0  0  0  0  0  0  0  0  0  0  0  0
   -1.3935    0.1851    0.0313 C   0  0  0  0  0  0  0  0  0  0  0  0
   -2.6902   -1.2043   -0.6921 H   0  0  0  0  0  0  0  0  0  0  0  0
   -2.6386   -1.3850    1.0506 H   0  0  0  0  0  0  0  0  0  0  0  0
   -0.1382   -0.6853   -0.0080 C   0  0  0  0  0  0  0  0  0  0  0  0
   -1.3442    0.8468    0.8589 H   0  0  0  0  0  0  0  0  0  0  0  0
   -1.3948    0.7453   -0.7687 H   0  0  0  0  0  0  0  0  0  0  0  0
   -0.1234   -1.2520    0.8559 H   0  0  0  0  0  0  0  0  0  0  0  0
    0.7900   -0.0545   -0.0074 H   0  0  0  0  0  0  0  0  0  0  0  0
   -0.2142   -1.4191   -0.8918 H   0  0  0  0  0  0  0  0  0  0  0  0
  1  2  1  0  0  0  0
  1  5  1  0  0  0  0
  2  8  1  0  0  0  0
  3  1  1  0  0  0  0
  4  1  1  0  0  0  0
  6  2  1  0  0  0  0
  6 10  1  0  0  0  0
  7  2  1  0  0  0  0
  9 13  1  0  0  0  0
  9  6  1  0  0  0  0
  9 12  1  0  0  0  0
 11  6  1  0  0  0  0
 14  9  1  0  0  0  0
M  END
$$$$
