14
butane_opt
C  -3.942499   0.245689   0.063704
C  -2.696191  -0.577295   0.010464
H  -4.921910  -0.397663   0.053781
H  -3.955909   0.837317  -0.765970
H  -3.964943   0.928776   0.939880
C  -1.404955   0.189735  -0.049821
H  -2.698134  -1.384615  -0.903521
H  -2.689295  -1.202305   0.893336
C  -0.159729  -0.704038   0.065356
H  -1.424640   0.825581   0.748669
H  -1.420442   0.882217  -0.997377
H  -0.223104  -1.299088   0.955324
H   0.707616  -0.125149   0.228676
H   0.021119  -1.399492  -0.780477
