butane_opt
 OpenBabel08242015413D

 14 13  0  0  0  0  0  0  0  0999 V2000
   -3.9196    0.2500    0.0120 C   0  0  0  0  0  0  0  0  0  0  0  0
   -2.7084   -0.5912    0.0751 C   0  0  0  0  0  0  0  0  0  0  0  0
   -4.8928   -0.4122   -0.0465 H   0  0  0  0  0  0  0  0  0  0  0  0
   -3.8865    0.9199   -0.8967 H   0  0  0  0  0  0  0  0  0  0  0  0
   -3.9693    0.8016    0.7778 H   0  0  0  0  0  0  0  0  0  0  0  0
   -1.4099    0.2238    0.0046 C   0  0  0  0  0  0  0  0  0  0  0  0
   -2.6828   -1.2414   -0.7609 H   0  0  0  0  0  0  0  0  0  0  0  0
   -2.7032   -1.2888    1.0335 H   0  0  0  0  0  0  0  0  0  0  0  0
   -0.1735   -0.7266    0.0164 C   0  0  0  0  0  0  0  0  0  0  0  0
   -1.3908    0.8462    0.8231 H   0  0  0  0  0  0  0  0  0  0  0  0
   -1.3784    0.8353   -0.8210 H   0  0  0  0  0  0  0  0  0  0  0  0
   -0.1929   -1.1150    0.7487 H   0  0  0  0  0  0  0  0  0  0  0  0
    0.6869   -0.1507    0.2102 H   0  0  0  0  0  0  0  0  0  0  0  0
   -0.0512   -1.5622   -0.9627 H   0  0  0  0  0  0  0  0  0  0  0  0
  1  2  1  0  0  0  0
  1  5  1  0  0  0  0
  2  8  1  0  0  0  0
  3  1  1  0  0  0  0
  4  1  1  0  0  0  0
  6  9  1  0  0  0  0
  6  2  1  0  0  0  0
  6 10  1  0  0  0  0
  7  2  1  0  0  0  0
  9 13  1  0  0  0  0
  9 12  1  0  0  0  0
 11  6  1  0  0  0  0
 14  9  1  0  0  0  0
M  END
$$$$
