14
butane_opt
C  -3.940186   0.268290  -0.018322
C  -2.685346  -0.627590   0.067115
H  -4.850358  -0.270379   0.227765
H  -4.005994   1.151907  -1.135944
H  -3.925465   0.736497   0.687959
C  -1.411624   0.169330   0.073566
H  -2.638848  -1.325234  -0.799717
H  -2.657067  -1.326631   1.001957
C  -0.186458  -0.669019  -0.000446
H  -1.321752   0.843811   0.931827
H  -1.412430   0.795509  -0.777343
H  -0.126360  -1.125921   0.774897
H   0.719152  -0.078913   0.040657
H  -0.128852  -1.554742  -1.021488
