butane_opt
 OpenBabel08242015413D

 14 13  0  0  0  0  0  0  0  0999 V2000
   -3.9425    0.2457    0.0637 C   0  0  0  0  0  0  0  0  0  0  0  0
   -2.6962   -0.5773    0.0105 C   0  0  0  0  0  0  0  0  0  0  0  0
   -4.9219   -0.3977    0.0538 H   0  0  0  0  0  0  0  0  0  0  0  0
   -3.9559    0.8373   -0.7660 H   0  0  0  0  0  0  0  0  0  0  0  0
   -3.9649    0.9288    0.9399 H   0  0  0  0  0  0  0  0  0  0  0  0
   -1.4050    0.1897   -0.0498 C   0  0  0  0  0  0  0  0  0  0  0  0
   -2.6981   -1.3846   -0.9035 H   0  0  0  0  0  0  0  0  0  0  0  0
   -2.6893   -1.2023    0.8933 H   0  0  0  0  0  0  0  0  0  0  0  0
   -0.1597   -0.7040    0.0654 C   0  0  0  0  0  0  0  0  0  0  0  0
   -1.4246    0.8256    0.7487 H   0  0  0  0  0  0  0  0  0  0  0  0
   -1.4204    0.8822   -0.9974 H   0  0  0  0  0  0  0  0  0  0  0  0
   -0.2231   -1.2991    0.9553 H   0  0  0  0  0  0  0  0  0  0  0  0
    0.7076   -0.1251    0.2287 H   0  0  0  0  0  0  0  0  0  0  0  0
    0.0211   -1.3995   -0.7805 H   0  0  0  0  0  0  0  0  0  0  0  0
  1  5  1  0  0  0  0
  2  1  1  0  0  0  0
  2  8  1  0  0  0  0
  3  1  1  0  0  0  0
  4  1  1  0  0  0  0
  6  2  1  0  0  0  0
  6  9  1  0  0  0  0
  6 10  1  0  0  0  0
  7  2  1  0  0  0  0
  9 13  1  0  0  0  0
  9 12  1  0  0  0  0
 11  6  1  0  0  0  0
 14  9  1  0  0  0  0
M  END
$$$$
