butane_opt
 OpenBabel08242015413D

 14 13  0  0  0  0  0  0  0  0999 V2000
   -3.9429    0.2710    0.0285 C   0  0  0  0  0  0  0  0  0  0  0  0
   -2.7074   -0.6347    0.0376 C   0  0  0  0  0  0  0  0  0  0  0  0
   -4.7949   -0.2751   -0.0928 H   0  0  0  0  0  0  0  0  0  0  0  0
   -3.9766    0.7439   -0.7630 H   0  0  0  0  0  0  0  0  0  0  0  0
   -4.0695    1.1916    1.0182 H   0  0  0  0  0  0  0  0  0  0  0  0
   -1.4049    0.1629   -0.0148 C   0  0  0  0  0  0  0  0  0  0  0  0
   -2.7247   -1.3814   -0.8476 H   0  0  0  0  0  0  0  0  0  0  0  0
   -2.6504   -1.2552    0.9340 H   0  0  0  0  0  0  0  0  0  0  0  0
   -0.1634   -0.6772    0.0574 C   0  0  0  0  0  0  0  0  0  0  0  0
   -1.3656    0.7734    0.7478 H   0  0  0  0  0  0  0  0  0  0  0  0
   -1.3850    0.9351   -0.9962 H   0  0  0  0  0  0  0  0  0  0  0  0
   -0.1110   -1.2952    0.9034 H   0  0  0  0  0  0  0  0  0  0  0  0
    0.7807   -0.0795    0.0140 H   0  0  0  0  0  0  0  0  0  0  0  0
   -0.1091   -1.2854   -0.7544 H   0  0  0  0  0  0  0  0  0  0  0  0
  1  2  1  0  0  0  0
  1  5  1  0  0  0  0
  2  8  1  0  0  0  0
  3  1  1  0  0  0  0
  4  1  1  0  0  0  0
  6  2  1  0  0  0  0
  6  9  1  0  0  0  0
  6 10  1  0  0  0  0
  7  2  1  0  0  0  0
  9 12  1  0  0  0  0
 11  6  1  0  0  0  0
 13  9  1  0  0  0  0
 14  9  1  0  0  0  0
M  END
$$$$
