14
butane_opt
C  -3.905250   0.249663   0.044451
C  -2.695516  -0.601376   0.011533
H  -4.846376  -0.405652   0.101627
H  -3.987076   0.718594  -0.770717
H  -3.907826   1.033064   1.003461
C  -1.418377   0.205646  -0.050244
H  -2.679464  -1.255022  -0.825912
H  -2.793345  -1.264629   0.924017
C  -0.174237  -0.714715   0.075265
H  -1.493167   0.915241   0.764044
H  -1.448811   0.911858  -0.973819
H  -0.208216  -1.255515   0.923210
H   0.720319  -0.157800   0.154753
H  -0.043817  -1.399494  -0.810690
