butane_opt
 OpenBabel08242015413D

 14 13  0  0  0  0  0  0  0  0999 V2000
   -3.9597    0.2640   -0.0299 C   0  0  0  0  0  0  0  0  0  0  0  0
   -2.7115   -0.6058    0.1079 C   0  0  0  0  0  0  0  0  0  0  0  0
   -4.9195   -0.3336   -0.1909 H   0  0  0  0  0  0  0  0  0  0  0  0
   -3.8686    0.7016   -0.8116 H   0  0  0  0  0  0  0  0  0  0  0  0
   -4.0400    1.0252    0.8972 H   0  0  0  0  0  0  0  0  0  0  0  0
   -1.3799    0.1910    0.0294 C   0  0  0  0  0  0  0  0  0  0  0  0
   -2.6665   -1.1922   -0.6870 H   0  0  0  0  0  0  0  0  0  0  0  0
   -2.7503   -1.2919    1.0556 H   0  0  0  0  0  0  0  0  0  0  0  0
   -0.1480   -0.7019   -0.0115 C   0  0  0  0  0  0  0  0  0  0  0  0
   -1.3849    0.9061    0.8575 H   0  0  0  0  0  0  0  0  0  0  0  0
   -1.4279    0.7754   -0.8209 H   0  0  0  0  0  0  0  0  0  0  0  0
   -0.1156   -1.3029    0.8774 H   0  0  0  0  0  0  0  0  0  0  0  0
    0.7467   -0.1478    0.0400 H   0  0  0  0  0  0  0  0  0  0  0  0
   -0.1975   -1.4002   -0.9128 H   0  0  0  0  0  0  0  0  0  0  0  0
  1  2  1  0  0  0  0
  1  5  1  0  0  0  0
  2  8  1  0  0  0  0
  3  1  1  0  0  0  0
  4  1  1  0  0  0  0
  6  2  1  0  0  0  0
  6 10  1  0  0  0  0
  7  2  1  0  0  0  0
  9  6  1  0  0  0  0
  9 13  1  0  0  0  0
  9 12  1  0  0  0  0
 11  6  1  0  0  0  0
 14  9  1  0  0  0  0
M  END
$$$$
