butane_opt
 OpenBabel08242015413D

 14 13  0  0  0  0  0  0  0  0999 V2000
   -3.9396    0.2791    0.0157 C   0  0  0  0  0  0  0  0  0  0  0  0
   -2.6779   -0.6327    0.0104 C   0  0  0  0  0  0  0  0  0  0  0  0
   -4.8071   -0.2814    0.0255 H   0  0  0  0  0  0  0  0  0  0  0  0
   -3.9259    0.8170   -0.7965 H   0  0  0  0  0  0  0  0  0  0  0  0
   -3.9707    1.0927    1.0002 H   0  0  0  0  0  0  0  0  0  0  0  0
   -1.3956    0.1706    0.0112 C   0  0  0  0  0  0  0  0  0  0  0  0
   -2.7430   -1.3090   -0.8178 H   0  0  0  0  0  0  0  0  0  0  0  0
   -2.6782   -1.3149    0.9041 H   0  0  0  0  0  0  0  0  0  0  0  0
   -0.2010   -0.6727    0.0474 C   0  0  0  0  0  0  0  0  0  0  0  0
   -1.4054    0.8516    0.8452 H   0  0  0  0  0  0  0  0  0  0  0  0
   -1.3047    0.7192   -0.8383 H   0  0  0  0  0  0  0  0  0  0  0  0
   -0.0776   -1.4727    1.0479 H   0  0  0  0  0  0  0  0  0  0  0  0
    0.7332   -0.0694   -0.2123 H   0  0  0  0  0  0  0  0  0  0  0  0
   -0.2881   -1.2125   -0.7108 H   0  0  0  0  0  0  0  0  0  0  0  0
  1  3  1  0  0  0  0
  1  5  1  0  0  0  0
  2  6  1  0  0  0  0
  2  1  1  0  0  0  0
  2  8  1  0  0  0  0
  4  1  1  0  0  0  0
  6  9  1  0  0  0  0
  6 10  1  0  0  0  0
  7  2  1  0  0  0  0
  9 12  1  0  0  0  0
 11  6  1  0  0  0  0
 13  9  1  0  0  0  0
 14  9  1  0  0  0  0
M  END
$$$$
