butane_opt
 OpenBabel08242015413D

 14 13  0  0  0  0  0  0  0  0999 V2000
   -3.9716    0.2887   -0.0081 C   0  0  0  0  0  0  0  0  0  0  0  0
   -2.6895   -0.6341    0.0576 C   0  0  0  0  0  0  0  0  0  0  0  0
   -4.8591   -0.3032    0.1918 H   0  0  0  0  0  0  0  0  0  0  0  0
   -4.0410    1.0951   -1.0276 H   0  0  0  0  0  0  0  0  0  0  0  0
   -3.9806    0.7314    0.7149 H   0  0  0  0  0  0  0  0  0  0  0  0
   -1.4036    0.1426    0.0662 C   0  0  0  0  0  0  0  0  0  0  0  0
   -2.6512   -1.3672   -0.8379 H   0  0  0  0  0  0  0  0  0  0  0  0
   -2.6909   -1.2108    0.9050 H   0  0  0  0  0  0  0  0  0  0  0  0
   -0.1646   -0.6697   -0.0030 C   0  0  0  0  0  0  0  0  0  0  0  0
   -1.1886    0.9021    0.9297 H   0  0  0  0  0  0  0  0  0  0  0  0
   -1.4244    0.7970   -0.8359 H   0  0  0  0  0  0  0  0  0  0  0  0
   -0.0741   -1.2560    0.8703 H   0  0  0  0  0  0  0  0  0  0  0  0
    0.7837   -0.0636    0.0597 H   0  0  0  0  0  0  0  0  0  0  0  0
   -0.1565   -1.3205   -0.8838 H   0  0  0  0  0  0  0  0  0  0  0  0
  1  2  1  0  0  0  0
  1  3  1  0  0  0  0
  1  5  1  0  0  0  0
  2  6  1  0  0  0  0
  2  8  1  0  0  0  0
  4  1  1  0  0  0  0
  6 10  1  0  0  0  0
  7  2  1  0  0  0  0
  9 13  1  0  0  0  0
  9  6  1  0  0  0  0
  9 12  1  0  0  0  0
 11  6  1  0  0  0  0
 14  9  1  0  0  0  0
M  END
$$$$
