14
butane_opt
C  -3.937891   0.236375   0.030448
C  -2.699353  -0.592210   0.032249
H  -4.859030  -0.331704  -0.114418
H  -3.958954   0.695202  -0.750567
H  -4.054898   1.054166   0.968203
C  -1.418389   0.217079  -0.010234
H  -2.785399  -1.289328  -0.833779
H  -2.722849  -1.226519   0.926399
C  -0.140742  -0.716136   0.068743
H  -1.423652   0.810676   0.730296
H  -1.390973   0.886408  -0.934925
H  -0.031057  -1.327759   0.905104
H   0.721847  -0.146529  -0.112277
H  -0.142019  -1.349524  -0.784712
