14
butane_opt
C  -3.939623   0.279094   0.015735
C  -2.677869  -0.632680   0.010433
H  -4.807135  -0.281415   0.025457
H  -3.925912   0.817029  -0.796543
H  -3.970702   1.092675   1.000186
C  -1.395614   0.170565   0.011174
H  -2.742965  -1.308962  -0.817774
H  -2.678224  -1.314887   0.904051
C  -0.200978  -0.672686   0.047436
H  -1.405443   0.851556   0.845209
H  -1.304702   0.719223  -0.838307
H  -0.077628  -1.472677   1.047867
H   0.733191  -0.069376  -0.212329
H  -0.288142  -1.212507  -0.710768
