butane_opt
 OpenBabel08242015413D

 14 13  0  0  0  0  0  0  0  0999 V2000
   -3.9455    0.2400    0.0388 C   0  0  0  0  0  0  0  0  0  0  0  0
   -2.6948   -0.5746   -0.0049 C   0  0  0  0  0  0  0  0  0  0  0  0
   -4.8695   -0.3244    0.0602 H   0  0  0  0  0  0  0  0  0  0  0  0
   -4.0148    0.7603   -0.8132 H   0  0  0  0  0  0  0  0  0  0  0  0
   -3.8127    0.9675    0.9175 H   0  0  0  0  0  0  0  0  0  0  0  0
   -1.4169    0.1919   -0.0039 C   0  0  0  0  0  0  0  0  0  0  0  0
   -2.6619   -1.2799   -0.8627 H   0  0  0  0  0  0  0  0  0  0  0  0
   -2.7527   -1.2012    0.9031 H   0  0  0  0  0  0  0  0  0  0  0  0
   -0.1552   -0.7084    0.0607 C   0  0  0  0  0  0  0  0  0  0  0  0
   -1.3897    0.8646    0.8348 H   0  0  0  0  0  0  0  0  0  0  0  0
   -1.3821    0.7606   -0.8418 H   0  0  0  0  0  0  0  0  0  0  0  0
   -0.1224   -1.4603    1.0266 H   0  0  0  0  0  0  0  0  0  0  0  0
    0.7241   -0.1253   -0.1716 H   0  0  0  0  0  0  0  0  0  0  0  0
   -0.1811   -1.2201   -0.6839 H   0  0  0  0  0  0  0  0  0  0  0  0
  1  3  1  0  0  0  0
  1  5  1  0  0  0  0
  2  6  1  0  0  0  0
  2  1  1  0  0  0  0
  2  8  1  0  0  0  0
  4  1  1  0  0  0  0
  6  9  1  0  0  0  0
  6 10  1  0  0  0  0
  7  2  1  0  0  0  0
  9 12  1  0  0  0  0
 11  6  1  0  0  0  0
 13  9  1  0  0  0  0
 14  9  1  0  0  0  0
M  END
$$$$
