14
butane_opt
C  -3.947192   0.280439   0.033429
C  -2.688648  -0.635288   0.001949
H  -4.830340  -0.319961   0.262797
H  -4.066941   1.015294  -0.933565
H  -3.951633   0.885081   0.876496
C  -1.407469   0.161926   0.015296
H  -2.712976  -1.431078  -0.952963
H  -2.619620  -1.215365   0.815569
C  -0.165452  -0.662414   0.045013
H  -1.339118   0.792641   0.820324
H  -1.400085   0.841444  -0.870962
H  -0.173824  -1.381514   1.019520
H   0.724341  -0.065267   0.016136
H  -0.149913  -1.316007  -0.754605
