butane_opt
 OpenBabel08242015413D

 14 13  0  0  0  0  0  0  0  0999 V2000
   -3.9419    0.2606    0.0270 C   0  0  0  0  0  0  0  0  0  0  0  0
   -2.6943   -0.6160    0.0533 C   0  0  0  0  0  0  0  0  0  0  0  0
   -4.8277   -0.3022   -0.1855 H   0  0  0  0  0  0  0  0  0  0  0  0
   -3.8049    0.7376   -0.7712 H   0  0  0  0  0  0  0  0  0  0  0  0
   -4.0077    1.0937    0.9473 H   0  0  0  0  0  0  0  0  0  0  0  0
   -1.4145    0.1831   -0.0228 C   0  0  0  0  0  0  0  0  0  0  0  0
   -2.6412   -1.2994   -0.8107 H   0  0  0  0  0  0  0  0  0  0  0  0
   -2.6636   -1.3291    1.0339 H   0  0  0  0  0  0  0  0  0  0  0  0
   -0.1763   -0.6798    0.0354 C   0  0  0  0  0  0  0  0  0  0  0  0
   -1.4219    0.9029    0.8438 H   0  0  0  0  0  0  0  0  0  0  0  0
   -1.3865    0.7471   -0.8980 H   0  0  0  0  0  0  0  0  0  0  0  0
   -0.0803   -1.3372    0.9701 H   0  0  0  0  0  0  0  0  0  0  0  0
    0.6878   -0.1218    0.0061 H   0  0  0  0  0  0  0  0  0  0  0  0
   -0.1630   -1.3393   -0.7907 H   0  0  0  0  0  0  0  0  0  0  0  0
  1  2  1  0  0  0  0
  1  5  1  0  0  0  0
  2  8  1  0  0  0  0
  3  1  1  0  0  0  0
  4  1  1  0  0  0  0
  6  9  1  0  0  0  0
  6  2  1  0  0  0  0
  6 10  1  0  0  0  0
  7  2  1  0  0  0  0
  9 12  1  0  0  0  0
 11  6  1  0  0  0  0
 13  9  1  0  0  0  0
 14  9  1  0  0  0  0
M  END
$$$$
