14
butane_opt
C  -3.943853   0.249581  -0.008110
C  -2.727680  -0.589662   0.059742
H  -4.873123  -0.352608   0.293472
H  -4.005086   1.094878  -1.061053
H  -3.900923   0.645025   0.633326
C  -1.403513   0.208492   0.067283
H  -2.740521  -1.361907  -0.824957
H  -2.817078  -1.190659   0.905021
C  -0.119420  -0.706816  -0.007439
H  -1.391515   0.911032   0.926070
H  -1.448473   0.772089  -0.786663
H  -0.149628  -1.265477   0.852787
H   0.691501  -0.193196   0.039970
H  -0.049687  -1.470137  -0.906381
