14
butane_opt
C  -3.936139   0.269559  -0.001103
C  -2.705400  -0.617845   0.040145
H  -4.859245  -0.349461   0.197992
H  -4.006035   1.045573  -0.993393
H  -3.889009   0.812425   0.804057
C  -1.406154   0.181900   0.045471
H  -2.680102  -1.312686  -0.813239
H  -2.722276  -1.241342   0.919443
C  -0.166906  -0.696326   0.014746
H  -1.356028   0.840712   0.890637
H  -1.427354   0.814454  -0.817025
H  -0.112040  -1.264465   0.859496
H   0.782104  -0.064371   0.053394
H  -0.180691  -1.388921  -0.862925
