14
butane_opt
C  -3.963235   0.291206   0.029561
C  -2.697733  -0.653656   0.027503
H  -4.856524  -0.293631  -0.094554
H  -3.998499   0.701958  -0.765556
H  -4.080105   1.164602   1.071178
C  -1.373124   0.189075  -0.018906
H  -2.663908  -1.329014  -0.861488
H  -2.680836  -1.291079   0.909117
C  -0.175531  -0.680767   0.060657
H  -1.271661   0.772999   0.764564
H  -1.382239   0.796061  -0.904910
H  -0.132598  -1.429278   1.013927
H   0.746129  -0.066070  -0.077243
H  -0.182572  -1.240206  -0.753978
