14
butane_opt
C  -3.951843   0.247886   0.065110
C  -2.728722  -0.595357  -0.032436
H  -4.829341  -0.290244   0.328082
H  -4.129568   0.928773  -0.892020
H  -3.801586   0.773535   0.860901
C  -1.392423   0.201124  -0.020888
H  -2.839860  -1.329623  -0.971936
H  -2.675496  -1.124486   0.752897
C  -0.130385  -0.711831   0.086790
H  -1.511516   0.830688   0.759540
H  -1.354297   0.885802  -0.929380
H  -0.055190  -1.357640   1.015929
H   0.748427  -0.136154   0.088515
H  -0.134727  -1.353042  -0.760808
