butane_opt
 OpenBabel08242015413D

 14 13  0  0  0  0  0  0  0  0999 V2000
   -3.9644    0.2578    0.0545 C   0  0  0  0  0  0  0  0  0  0  0  0
   -2.7194   -0.6056   -0.0214 C   0  0  0  0  0  0  0  0  0  0  0  0
   -4.8616   -0.3352    0.2193 H   0  0  0  0  0  0  0  0  0  0  0  0
   -4.1375    0.9048   -0.8351 H   0  0  0  0  0  0  0  0  0  0  0  0
   -3.7956    0.7814    0.8672 H   0  0  0  0  0  0  0  0  0  0  0  0
   -1.3930    0.2048   -0.0210 C   0  0  0  0  0  0  0  0  0  0  0  0
   -2.7030   -1.2583   -0.8790 H   0  0  0  0  0  0  0  0  0  0  0  0
   -2.7573   -1.2072    0.8834 H   0  0  0  0  0  0  0  0  0  0  0  0
   -0.1323   -0.7144    0.0670 C   0  0  0  0  0  0  0  0  0  0  0  0
   -1.4682    0.8519    0.8214 H   0  0  0  0  0  0  0  0  0  0  0  0
   -1.4080    0.8606   -0.8913 H   0  0  0  0  0  0  0  0  0  0  0  0
   -0.1671   -1.3073    0.9756 H   0  0  0  0  0  0  0  0  0  0  0  0
    0.7896   -0.0951    0.1205 H   0  0  0  0  0  0  0  0  0  0  0  0
   -0.0087   -1.3807   -0.8062 H   0  0  0  0  0  0  0  0  0  0  0  0
  1  3  1  0  0  0  0
  1  5  1  0  0  0  0
  2  6  1  0  0  0  0
  2  1  1  0  0  0  0
  2  8  1  0  0  0  0
  4  1  1  0  0  0  0
  6  9  1  0  0  0  0
  6 10  1  0  0  0  0
  7  2  1  0  0  0  0
  9 13  1  0  0  0  0
  9 12  1  0  0  0  0
 11  6  1  0  0  0  0
 14  9  1  0  0  0  0
M  END
$$$$
