butane_opt
 OpenBabel08242015413D

 14 13  0  0  0  0  0  0  0  0999 V2000
   -3.9256    0.2592   -0.0453 C   0  0  0  0  0  0  0  0  0  0  0  0
   -2.6999   -0.5916    0.1019 C   0  0  0  0  0  0  0  0  0  0  0  0
   -4.8876   -0.3967    0.0386 H   0  0  0  0  0  0  0  0  0  0  0  0
   -3.8730    0.8768   -0.9456 H   0  0  0  0  0  0  0  0  0  0  0  0
   -4.0238    0.8294    0.7577 H   0  0  0  0  0  0  0  0  0  0  0  0
   -1.4085    0.2051    0.0778 C   0  0  0  0  0  0  0  0  0  0  0  0
   -2.6831   -1.3111   -0.7331 H   0  0  0  0  0  0  0  0  0  0  0  0
   -2.8659   -1.1958    1.0226 H   0  0  0  0  0  0  0  0  0  0  0  0
   -0.1569   -0.7192   -0.0236 C   0  0  0  0  0  0  0  0  0  0  0  0
   -1.3554    0.8569    0.8903 H   0  0  0  0  0  0  0  0  0  0  0  0
   -1.4904    0.8038   -0.7540 H   0  0  0  0  0  0  0  0  0  0  0  0
   -0.0706   -1.2668    0.7986 H   0  0  0  0  0  0  0  0  0  0  0  0
    0.7499   -0.1110   -0.0658 H   0  0  0  0  0  0  0  0  0  0  0  0
   -0.2189   -1.4028   -0.8958 H   0  0  0  0  0  0  0  0  0  0  0  0
  1  3  1  0  0  0  0
  1  2  1  0  0  0  0
  1  5  1  0  0  0  0
  2  8  1  0  0  0  0
  4  1  1  0  0  0  0
  6  2  1  0  0  0  0
  6 10  1  0  0  0  0
  7  2  1  0  0  0  0
  9  6  1  0  0  0  0
  9 12  1  0  0  0  0
 11  6  1  0  0  0  0
 13  9  1  0  0  0  0
 14  9  1  0  0  0  0
M  END
$$$$
