butane_opt
 OpenBabel08242015413D

 14 13  0  0  0  0  0  0  0  0999 V2000
   -3.9518    0.2479    0.0651 C   0  0  0  0  0  0  0  0  0  0  0  0
   -2.7287   -0.5954   -0.0324 C   0  0  0  0  0  0  0  0  0  0  0  0
   -4.8293   -0.2902    0.3281 H   0  0  0  0  0  0  0  0  0  0  0  0
   -4.1296    0.9288   -0.8920 H   0  0  0  0  0  0  0  0  0  0  0  0
   -3.8016    0.7735    0.8609 H   0  0  0  0  0  0  0  0  0  0  0  0
   -1.3924    0.2011   -0.0209 C   0  0  0  0  0  0  0  0  0  0  0  0
   -2.8399   -1.3296   -0.9719 H   0  0  0  0  0  0  0  0  0  0  0  0
   -2.6755   -1.1245    0.7529 H   0  0  0  0  0  0  0  0  0  0  0  0
   -0.1304   -0.7118    0.0868 C   0  0  0  0  0  0  0  0  0  0  0  0
   -1.5115    0.8307    0.7595 H   0  0  0  0  0  0  0  0  0  0  0  0
   -1.3543    0.8858   -0.9294 H   0  0  0  0  0  0  0  0  0  0  0  0
   -0.0552   -1.3576    1.0159 H   0  0  0  0  0  0  0  0  0  0  0  0
    0.7484   -0.1362    0.0885 H   0  0  0  0  0  0  0  0  0  0  0  0
   -0.1347   -1.3530   -0.7608 H   0  0  0  0  0  0  0  0  0  0  0  0
  1  3  1  0  0  0  0
  1  5  1  0  0  0  0
  2  6  1  0  0  0  0
  2  1  1  0  0  0  0
  2  8  1  0  0  0  0
  4  1  1  0  0  0  0
  6  9  1  0  0  0  0
  6 10  1  0  0  0  0
  7  2  1  0  0  0  0
  9 13  1  0  0  0  0
  9 12  1  0  0  0  0
 11  6  1  0  0  0  0
 14  9  1  0  0  0  0
M  END
$$$$
