14
butane_opt
C  -3.946814   0.275727   0.058875
C  -2.675468  -0.623780  -0.035265
H  -4.883499  -0.299366   0.257525
H  -4.082298   0.939284  -0.893524
H  -3.897578   0.904436   0.884675
C  -1.389977   0.142121  -0.018624
H  -2.659076  -1.247557  -0.831043
H  -2.656202  -1.205043   0.865308
C  -0.180120  -0.666544   0.073020
H  -1.471563   0.863614   0.852408
H  -1.357825   0.747664  -0.894733
H  -0.236032  -1.339395   1.025053
H   0.747503  -0.049494   0.014397
H  -0.216306  -1.319522  -0.777433
