butane_opt
 OpenBabel08242015413D

 14 13  0  0  0  0  0  0  0  0999 V2000
   -3.9513    0.2577    0.0474 C   0  0  0  0  0  0  0  0  0  0  0  0
   -2.7051   -0.6055    0.0070 C   0  0  0  0  0  0  0  0  0  0  0  0
   -4.9093   -0.3795    0.1132 H   0  0  0  0  0  0  0  0  0  0  0  0
   -3.9577    0.8675   -0.8359 H   0  0  0  0  0  0  0  0  0  0  0  0
   -3.9127    0.9178    0.9055 H   0  0  0  0  0  0  0  0  0  0  0  0
   -1.4107    0.1985   -0.0222 C   0  0  0  0  0  0  0  0  0  0  0  0
   -2.7861   -1.3058   -0.8331 H   0  0  0  0  0  0  0  0  0  0  0  0
   -2.6704   -1.2042    0.8838 H   0  0  0  0  0  0  0  0  0  0  0  0
   -0.1462   -0.7071    0.0620 C   0  0  0  0  0  0  0  0  0  0  0  0
   -1.4378    0.8018    0.7669 H   0  0  0  0  0  0  0  0  0  0  0  0
   -1.3601    0.8861   -0.9531 H   0  0  0  0  0  0  0  0  0  0  0  0
   -0.1338   -1.2443    0.8938 H   0  0  0  0  0  0  0  0  0  0  0  0
    0.7435   -0.1304    0.1565 H   0  0  0  0  0  0  0  0  0  0  0  0
   -0.0378   -1.4097   -0.7959 H   0  0  0  0  0  0  0  0  0  0  0  0
  1  3  1  0  0  0  0
  1  5  1  0  0  0  0
  2  1  1  0  0  0  0
  2  8  1  0  0  0  0
  4  1  1  0  0  0  0
  6  2  1  0  0  0  0
  6  9  1  0  0  0  0
  6 10  1  0  0  0  0
  7  2  1  0  0  0  0
  9 13  1  0  0  0  0
  9 12  1  0  0  0  0
 11  6  1  0  0  0  0
 14  9  1  0  0  0  0
M  END
$$$$
