14
butane_opt
C  -3.937335   0.285471   0.060266
C  -2.680365  -0.644448  -0.032771
H  -4.861925  -0.295751   0.336783
H  -4.225171   0.978499  -0.885091
H  -3.840169   0.882331   0.898997
C  -1.415046   0.158126  -0.032245
H  -2.684649  -1.360651  -0.898854
H  -2.635521  -1.204693   0.800614
C  -0.175642  -0.669436   0.074625
H  -1.422529   0.855106   0.799462
H  -1.249711   0.749962  -0.894925
H  -0.192331  -1.292757   0.988561
H   0.732916  -0.086626   0.126961
H  -0.137064  -1.246628  -0.673951
