14
butane_opt
C  -3.904540   0.237724   0.027706
C  -2.697860  -0.590978   0.009580
H  -4.839888  -0.376056   0.008714
H  -3.975585   0.835670  -0.837066
H  -3.950663   0.980994   0.934429
C  -1.442452   0.215223   0.007049
H  -2.757373  -1.364706  -0.852542
H  -2.712285  -1.186192   0.887755
C  -0.156692  -0.708018   0.049019
H  -1.354983   0.888165   0.869203
H  -1.487786   0.758921  -0.817747
H  -0.079757  -1.518810   1.071461
H   0.714649  -0.120202  -0.237942
H  -0.149677  -1.212080  -0.688691
