butane_opt
 OpenBabel08242015413D

 14 13  0  0  0  0  0  0  0  0999 V2000
   -3.9468    0.2757    0.0589 C   0  0  0  0  0  0  0  0  0  0  0  0
   -2.6755   -0.6238   -0.0353 C   0  0  0  0  0  0  0  0  0  0  0  0
   -4.8835   -0.2994    0.2575 H   0  0  0  0  0  0  0  0  0  0  0  0
   -4.0823    0.9393   -0.8935 H   0  0  0  0  0  0  0  0  0  0  0  0
   -3.8976    0.9044    0.8847 H   0  0  0  0  0  0  0  0  0  0  0  0
   -1.3900    0.1421   -0.0186 C   0  0  0  0  0  0  0  0  0  0  0  0
   -2.6591   -1.2476   -0.8310 H   0  0  0  0  0  0  0  0  0  0  0  0
   -2.6562   -1.2050    0.8653 H   0  0  0  0  0  0  0  0  0  0  0  0
   -0.1801   -0.6665    0.0730 C   0  0  0  0  0  0  0  0  0  0  0  0
   -1.4716    0.8636    0.8524 H   0  0  0  0  0  0  0  0  0  0  0  0
   -1.3578    0.7477   -0.8947 H   0  0  0  0  0  0  0  0  0  0  0  0
   -0.2360   -1.3394    1.0251 H   0  0  0  0  0  0  0  0  0  0  0  0
    0.7475   -0.0495    0.0144 H   0  0  0  0  0  0  0  0  0  0  0  0
   -0.2163   -1.3195   -0.7774 H   0  0  0  0  0  0  0  0  0  0  0  0
  1  3  1  0  0  0  0
  1  5  1  0  0  0  0
  2  6  1  0  0  0  0
  2  1  1  0  0  0  0
  2  8  1  0  0  0  0
  4  1  1  0  0  0  0
  6  9  1  0  0  0  0
  6 10  1  0  0  0  0
  7  2  1  0  0  0  0
  9 12  1  0  0  0  0
 11  6  1  0  0  0  0
 13  9  1  0  0  0  0
 14  9  1  0  0  0  0
M  END
$$$$
