14
butane_opt
C  -3.943127   0.263304   0.027502
C  -2.687220  -0.614139   0.010132
H  -4.837054  -0.314616   0.056756
H  -4.035458   0.875604  -0.880198
H  -3.814766   0.968793   0.920705
C  -1.420780   0.167898   0.008615
H  -2.630186  -1.325104  -0.844066
H  -2.662552  -1.262620   0.862383
C  -0.182705  -0.677243   0.054320
H  -1.336055   0.888153   0.903131
H  -1.385601   0.820942  -0.897962
H  -0.064886  -1.408314   1.036120
H   0.751874  -0.107437  -0.134938
H  -0.215453  -1.273660  -0.778136
