14
butane_opt
C  -3.927806   0.287876   0.045640
C  -2.693099  -0.642295   0.029022
H  -4.800924  -0.235345   0.049260
H  -3.975919   0.876014  -0.863008
H  -3.921193   0.962844   0.896906
C  -1.394773   0.164834  -0.037917
H  -2.820175  -1.347393  -0.865073
H  -2.593782  -1.258345   0.895956
C  -0.184224  -0.677513   0.066151
H  -1.452962   0.774932   0.773720
H  -1.377259   0.819210  -0.899899
H  -0.320333  -1.175963   0.874032
H   0.764668  -0.044861   0.141304
H  -0.137569  -1.424467  -0.823379
