14
butane_opt
C  -3.949441   0.248457   0.034166
C  -2.708758  -0.601709   0.020365
H  -4.866753  -0.356336   0.002894
H  -3.992845   0.750779  -0.802692
H  -3.928537   1.073104   0.995311
C  -1.416553   0.198240  -0.025305
H  -2.757843  -1.257384  -0.813342
H  -2.708690  -1.241447   0.906723
C  -0.139605  -0.708146   0.059038
H  -1.394227   0.834007   0.807173
H  -1.388941   0.859874  -0.930149
H  -0.122466  -1.330402   0.976850
H   0.765861  -0.110913   0.038240
H  -0.053841  -1.339424  -0.786654
