14
butane_opt
C  -3.934336   0.262107   0.042039
C  -2.718280  -0.598216  -0.015582
H  -4.858205  -0.348280   0.040477
H  -3.999638   0.807212  -0.791971
H  -3.806856   0.950172   0.966579
C  -1.409347   0.192557   0.008471
H  -2.684935  -1.294855  -0.899539
H  -2.706586  -1.218012   0.878215
C  -0.156111  -0.704703   0.052180
H  -1.461533   0.852718   0.821055
H  -1.360237   0.750950  -0.852881
H  -0.124230  -1.527729   1.088617
H   0.797500  -0.123679  -0.179572
H  -0.201310  -1.128143  -0.656730
