14
butane_opt
C  -3.952069   0.233582   0.058557
C  -2.715032  -0.590503   0.024804
H  -4.805846  -0.299366  -0.127148
H  -3.857947   0.622552  -0.695331
H  -4.022466   1.159248   1.044407
C  -1.402300   0.211980  -0.061172
H  -2.807239  -1.279875  -0.914279
H  -2.827901  -1.194935   0.897348
C  -0.136057  -0.717964   0.075161
H  -1.390764   0.879055   0.780517
H  -1.407061   0.901751  -0.995707
H  -0.125446  -1.435818   1.037020
H   0.732615  -0.160764   0.006058
H  -0.043385  -1.319873  -0.715293
