14
butane_opt
C  -3.962503   0.290580  -0.039887
C  -2.701821  -0.643023   0.094680
H  -4.914928  -0.334189  -0.014776
H  -3.960550   0.956905  -0.991960
H  -4.107948   0.878839   0.775957
C  -1.391459   0.170710   0.093460
H  -2.693129  -1.341359  -0.803361
H  -2.705132  -1.283196   1.006396
C  -0.140378  -0.671910  -0.024191
H  -1.366908   0.849551   0.964134
H  -1.474460   0.797291  -0.766208
H  -0.077650  -1.355256   0.857646
H   0.818354  -0.045406  -0.181703
H  -0.193759  -1.340635  -0.903336
