butane_opt
 OpenBabel08242015413D

 14 13  0  0  0  0  0  0  0  0999 V2000
   -3.9374    0.2731    0.0065 C   0  0  0  0  0  0  0  0  0  0  0  0
   -2.6884   -0.6213    0.0509 C   0  0  0  0  0  0  0  0  0  0  0  0
   -4.8737   -0.3484    0.1237 H   0  0  0  0  0  0  0  0  0  0  0  0
   -3.9926    1.0073   -0.9851 H   0  0  0  0  0  0  0  0  0  0  0  0
   -3.9322    0.8065    0.7717 H   0  0  0  0  0  0  0  0  0  0  0  0
   -1.3987    0.1799    0.0247 C   0  0  0  0  0  0  0  0  0  0  0  0
   -2.6860   -1.3018   -0.8092 H   0  0  0  0  0  0  0  0  0  0  0  0
   -2.7089   -1.2737    0.9918 H   0  0  0  0  0  0  0  0  0  0  0  0
   -0.1796   -0.6923    0.0158 C   0  0  0  0  0  0  0  0  0  0  0  0
   -1.3899    0.9307    0.9342 H   0  0  0  0  0  0  0  0  0  0  0  0
   -1.4003    0.7576   -0.8236 H   0  0  0  0  0  0  0  0  0  0  0  0
   -0.1713   -1.2170    0.8692 H   0  0  0  0  0  0  0  0  0  0  0  0
    0.7309   -0.0936    0.0632 H   0  0  0  0  0  0  0  0  0  0  0  0
   -0.1466   -1.4156   -0.8955 H   0  0  0  0  0  0  0  0  0  0  0  0
  1  2  1  0  0  0  0
  1  3  1  0  0  0  0
  1  5  1  0  0  0  0
  2  8  1  0  0  0  0
  4  1  1  0  0  0  0
  6  2  1  0  0  0  0
  6 10  1  0  0  0  0
  7  2  1  0  0  0  0
  9  6  1  0  0  0  0
  9 13  1  0  0  0  0
  9 12  1  0  0  0  0
 11  6  1  0  0  0  0
 14  9  1  0  0  0  0
M  END
$$$$
