butane_opt
 OpenBabel08242015413D

 14 13  0  0  0  0  0  0  0  0999 V2000
   -3.9625    0.2906   -0.0399 C   0  0  0  0  0  0  0  0  0  0  0  0
   -2.7018   -0.6430    0.0947 C   0  0  0  0  0  0  0  0  0  0  0  0
   -4.9149   -0.3342   -0.0148 H   0  0  0  0  0  0  0  0  0  0  0  0
   -3.9606    0.9569   -0.9920 H   0  0  0  0  0  0  0  0  0  0  0  0
   -4.1079    0.8788    0.7760 H   0  0  0  0  0  0  0  0  0  0  0  0
   -1.3915    0.1707    0.0935 C   0  0  0  0  0  0  0  0  0  0  0  0
   -2.6931   -1.3414   -0.8034 H   0  0  0  0  0  0  0  0  0  0  0  0
   -2.7051   -1.2832    1.0064 H   0  0  0  0  0  0  0  0  0  0  0  0
   -0.1404   -0.6719   -0.0242 C   0  0  0  0  0  0  0  0  0  0  0  0
   -1.3669    0.8496    0.9641 H   0  0  0  0  0  0  0  0  0  0  0  0
   -1.4745    0.7973   -0.7662 H   0  0  0  0  0  0  0  0  0  0  0  0
   -0.0776   -1.3553    0.8576 H   0  0  0  0  0  0  0  0  0  0  0  0
    0.8184   -0.0454   -0.1817 H   0  0  0  0  0  0  0  0  0  0  0  0
   -0.1938   -1.3406   -0.9033 H   0  0  0  0  0  0  0  0  0  0  0  0
  1  3  1  0  0  0  0
  1  2  1  0  0  0  0
  1  5  1  0  0  0  0
  2  8  1  0  0  0  0
  4  1  1  0  0  0  0
  6  2  1  0  0  0  0
  6 10  1  0  0  0  0
  7  2  1  0  0  0  0
  9  6  1  0  0  0  0
  9 12  1  0  0  0  0
 11  6  1  0  0  0  0
 13  9  1  0  0  0  0
 14  9  1  0  0  0  0
M  END
$$$$
