butane_opt
 OpenBabel08242015413D

 14 13  0  0  0  0  0  0  0  0999 V2000
   -3.9103    0.2343   -0.0478 C   0  0  0  0  0  0  0  0  0  0  0  0
   -2.7065   -0.5799    0.0951 C   0  0  0  0  0  0  0  0  0  0  0  0
   -4.8066   -0.3595   -0.0103 H   0  0  0  0  0  0  0  0  0  0  0  0
   -3.9711    0.8549   -0.9276 H   0  0  0  0  0  0  0  0  0  0  0  0
   -3.9803    0.8980    0.7814 H   0  0  0  0  0  0  0  0  0  0  0  0
   -1.4235    0.2075    0.0927 C   0  0  0  0  0  0  0  0  0  0  0  0
   -2.6255   -1.3282   -0.8006 H   0  0  0  0  0  0  0  0  0  0  0  0
   -2.7917   -1.2252    0.9940 H   0  0  0  0  0  0  0  0  0  0  0  0
   -0.1644   -0.7196   -0.0227 C   0  0  0  0  0  0  0  0  0  0  0  0
   -1.4155    0.9164    0.9527 H   0  0  0  0  0  0  0  0  0  0  0  0
   -1.4318    0.8573   -0.7586 H   0  0  0  0  0  0  0  0  0  0  0  0
    0.0700   -1.4328    0.8763 H   0  0  0  0  0  0  0  0  0  0  0  0
    0.7111   -0.1207   -0.2023 H   0  0  0  0  0  0  0  0  0  0  0  0
   -0.3056   -1.2457   -0.8551 H   0  0  0  0  0  0  0  0  0  0  0  0
  1  3  1  0  0  0  0
  1  2  1  0  0  0  0
  1  5  1  0  0  0  0
  2  8  1  0  0  0  0
  4  1  1  0  0  0  0
  6  2  1  0  0  0  0
  6 10  1  0  0  0  0
  7  2  1  0  0  0  0
  9  6  1  0  0  0  0
  9 12  1  0  0  0  0
 11  6  1  0  0  0  0
 13  9  1  0  0  0  0
 14  9  1  0  0  0  0
M  END
$$$$
