14
butane_opt
C  -3.940524   0.260925   0.014799
C  -2.691442  -0.597923   0.053467
H  -4.804383  -0.278249  -0.210950
H  -3.920925   0.651988  -0.749861
H  -3.979787   1.134091   1.041994
C  -1.407862   0.151907  -0.005912
H  -2.646374  -1.233099  -0.749908
H  -2.735883  -1.294163   0.973429
C  -0.173749  -0.688193   0.027653
H  -1.446947   0.834444   0.864797
H  -1.365728   0.873860  -0.954563
H  -0.200562  -1.333603   0.945832
H   0.808071  -0.052234  -0.025112
H  -0.175912  -1.286994  -0.757246
