butane_opt
 OpenBabel08242015413D

 14 13  0  0  0  0  0  0  0  0999 V2000
   -3.9507    0.2890    0.0734 C   0  0  0  0  0  0  0  0  0  0  0  0
   -2.6823   -0.6505    0.0008 C   0  0  0  0  0  0  0  0  0  0  0  0
   -4.8533   -0.2690   -0.1658 H   0  0  0  0  0  0  0  0  0  0  0  0
   -3.8869    0.7078   -0.6947 H   0  0  0  0  0  0  0  0  0  0  0  0
   -3.9898    1.1418    1.0465 H   0  0  0  0  0  0  0  0  0  0  0  0
   -1.4062    0.1658   -0.0444 C   0  0  0  0  0  0  0  0  0  0  0  0
   -2.6862   -1.3262   -0.8294 H   0  0  0  0  0  0  0  0  0  0  0  0
   -2.6277   -1.2331    0.8300 H   0  0  0  0  0  0  0  0  0  0  0  0
   -0.1844   -0.6669    0.0828 C   0  0  0  0  0  0  0  0  0  0  0  0
   -1.4319    0.7325    0.6897 H   0  0  0  0  0  0  0  0  0  0  0  0
   -1.2603    0.8650   -1.0423 H   0  0  0  0  0  0  0  0  0  0  0  0
   -0.1886   -1.3930    1.0095 H   0  0  0  0  0  0  0  0  0  0  0  0
    0.7455   -0.0403    0.0139 H   0  0  0  0  0  0  0  0  0  0  0  0
   -0.1808   -1.3006   -0.7455 H   0  0  0  0  0  0  0  0  0  0  0  0
  1  5  1  0  0  0  0
  2  1  1  0  0  0  0
  2  8  1  0  0  0  0
  3  1  1  0  0  0  0
  4  1  1  0  0  0  0
  6  2  1  0  0  0  0
  6  9  1  0  0  0  0
  6 10  1  0  0  0  0
  7  2  1  0  0  0  0
  9 12  1  0  0  0  0
 11  6  1  0  0  0  0
 13  9  1  0  0  0  0
 14  9  1  0  0  0  0
M  END
$$$$
