butane_opt
 OpenBabel08242015413D

 14 13  0  0  0  0  0  0  0  0999 V2000
   -3.9405    0.2609    0.0148 C   0  0  0  0  0  0  0  0  0  0  0  0
   -2.6914   -0.5979    0.0535 C   0  0  0  0  0  0  0  0  0  0  0  0
   -4.8044   -0.2782   -0.2109 H   0  0  0  0  0  0  0  0  0  0  0  0
   -3.9209    0.6520   -0.7499 H   0  0  0  0  0  0  0  0  0  0  0  0
   -3.9798    1.1341    1.0420 H   0  0  0  0  0  0  0  0  0  0  0  0
   -1.4079    0.1519   -0.0059 C   0  0  0  0  0  0  0  0  0  0  0  0
   -2.6464   -1.2331   -0.7499 H   0  0  0  0  0  0  0  0  0  0  0  0
   -2.7359   -1.2942    0.9734 H   0  0  0  0  0  0  0  0  0  0  0  0
   -0.1737   -0.6882    0.0277 C   0  0  0  0  0  0  0  0  0  0  0  0
   -1.4469    0.8344    0.8648 H   0  0  0  0  0  0  0  0  0  0  0  0
   -1.3657    0.8739   -0.9546 H   0  0  0  0  0  0  0  0  0  0  0  0
   -0.2006   -1.3336    0.9458 H   0  0  0  0  0  0  0  0  0  0  0  0
    0.8081   -0.0522   -0.0251 H   0  0  0  0  0  0  0  0  0  0  0  0
   -0.1759   -1.2870   -0.7572 H   0  0  0  0  0  0  0  0  0  0  0  0
  1  2  1  0  0  0  0
  1  5  1  0  0  0  0
  2  8  1  0  0  0  0
  3  1  1  0  0  0  0
  4  1  1  0  0  0  0
  6  9  1  0  0  0  0
  6  2  1  0  0  0  0
  6 10  1  0  0  0  0
  7  2  1  0  0  0  0
  9 12  1  0  0  0  0
 11  6  1  0  0  0  0
 13  9  1  0  0  0  0
 14  9  1  0  0  0  0
M  END
$$$$
