14
butane_opt
C  -3.956560   0.270442   0.035766
C  -2.688291  -0.615463   0.027039
H  -4.871277  -0.296009  -0.090357
H  -3.980153   0.749348  -0.779816
H  -3.980568   1.031553   0.954945
C  -1.395883   0.167618  -0.018939
H  -2.723828  -1.259832  -0.821879
H  -2.636197  -1.284427   0.931355
C  -0.164463  -0.681172   0.052118
H  -1.414240   0.816017   0.814761
H  -1.363622   0.803270  -0.909663
H  -0.156847  -1.321621   0.980476
H   0.738018  -0.094080   0.007757
H  -0.171706  -1.316932  -0.793166
