14
butane_opt
C  -3.910332   0.234302  -0.047779
C  -2.706524  -0.579917   0.095145
H  -4.806602  -0.359492  -0.010297
H  -3.971093   0.854885  -0.927640
H  -3.980314   0.898049   0.781370
C  -1.423509   0.207480   0.092677
H  -2.625511  -1.328209  -0.800594
H  -2.791656  -1.225225   0.993984
C  -0.164410  -0.719590  -0.022721
H  -1.415457   0.916441   0.952739
H  -1.431835   0.857281  -0.758555
H   0.070002  -1.432783   0.876319
H   0.711123  -0.120657  -0.202288
H  -0.305571  -1.245691  -0.855144
