butane_opt
 OpenBabel08242015413D

 14 13  0  0  0  0  0  0  0  0999 V2000
   -3.9521    0.2371   -0.0189 C   0  0  0  0  0  0  0  0  0  0  0  0
   -2.6981   -0.5986    0.0681 C   0  0  0  0  0  0  0  0  0  0  0  0
   -4.8863   -0.3776    0.0653 H   0  0  0  0  0  0  0  0  0  0  0  0
   -4.0175    0.9909   -1.0010 H   0  0  0  0  0  0  0  0  0  0  0  0
   -3.9193    0.7966    0.7712 H   0  0  0  0  0  0  0  0  0  0  0  0
   -1.4183    0.2167    0.0631 C   0  0  0  0  0  0  0  0  0  0  0  0
   -2.6374   -1.1478   -0.6946 H   0  0  0  0  0  0  0  0  0  0  0  0
   -2.7996   -1.2812    0.9838 H   0  0  0  0  0  0  0  0  0  0  0  0
   -0.1559   -0.7155   -0.0105 C   0  0  0  0  0  0  0  0  0  0  0  0
   -1.3295    0.9241    0.9484 H   0  0  0  0  0  0  0  0  0  0  0  0
   -1.3688    0.8137   -0.8006 H   0  0  0  0  0  0  0  0  0  0  0  0
   -0.0166   -1.2317    0.8514 H   0  0  0  0  0  0  0  0  0  0  0  0
    0.7184   -0.1486    0.0277 H   0  0  0  0  0  0  0  0  0  0  0  0
   -0.0654   -1.5017   -0.9592 H   0  0  0  0  0  0  0  0  0  0  0  0
  1  3  1  0  0  0  0
  1  2  1  0  0  0  0
  1  5  1  0  0  0  0
  2  8  1  0  0  0  0
  4  1  1  0  0  0  0
  6  2  1  0  0  0  0
  6 10  1  0  0  0  0
  7  2  1  0  0  0  0
  9 13  1  0  0  0  0
  9  6  1  0  0  0  0
  9 12  1  0  0  0  0
 11  6  1  0  0  0  0
 14  9  1  0  0  0  0
M  END
$$$$
