14
butane_opt
C  -3.938887   0.277127   0.091681
C  -2.681850  -0.611376  -0.039161
H  -4.866295  -0.310094   0.240616
H  -4.101725   1.004929  -0.879283
H  -3.826986   0.867387   0.916075
C  -1.406379   0.157114  -0.052269
H  -2.732561  -1.451818  -0.973471
H  -2.688685  -1.170814   0.769530
C  -0.193214  -0.680675   0.090338
H  -1.364387   0.771699   0.777070
H  -1.326103   0.817531  -0.959175
H  -0.280179  -1.361774   1.025616
H   0.834045  -0.025358   0.170454
H  -0.041579  -1.293097  -0.735231
