butane_opt
 OpenBabel08242015413D

 14 13  0  0  0  0  0  0  0  0999 V2000
   -3.9603    0.2769   -0.0144 C   0  0  0  0  0  0  0  0  0  0  0  0
   -2.6883   -0.6380    0.0687 C   0  0  0  0  0  0  0  0  0  0  0  0
   -4.8367   -0.2737   -0.0084 H   0  0  0  0  0  0  0  0  0  0  0  0
   -3.9706    0.9412   -0.9466 H   0  0  0  0  0  0  0  0  0  0  0  0
   -4.0806    0.8931    0.7660 H   0  0  0  0  0  0  0  0  0  0  0  0
   -1.3822    0.1845    0.0542 C   0  0  0  0  0  0  0  0  0  0  0  0
   -2.7195   -1.2730   -0.7626 H   0  0  0  0  0  0  0  0  0  0  0  0
   -2.6569   -1.3571    1.0117 H   0  0  0  0  0  0  0  0  0  0  0  0
   -0.1705   -0.6793   -0.0122 C   0  0  0  0  0  0  0  0  0  0  0  0
   -1.3871    0.8998    0.9817 H   0  0  0  0  0  0  0  0  0  0  0  0
   -1.4108    0.6793   -0.7322 H   0  0  0  0  0  0  0  0  0  0  0  0
   -0.1200   -1.3064    0.8916 H   0  0  0  0  0  0  0  0  0  0  0  0
    0.6988   -0.0771   -0.1069 H   0  0  0  0  0  0  0  0  0  0  0  0
   -0.1298   -1.3151   -0.8283 H   0  0  0  0  0  0  0  0  0  0  0  0
  1  3  1  0  0  0  0
  1  2  1  0  0  0  0
  1  5  1  0  0  0  0
  2  8  1  0  0  0  0
  4  1  1  0  0  0  0
  6  2  1  0  0  0  0
  6 10  1  0  0  0  0
  7  2  1  0  0  0  0
  9  6  1  0  0  0  0
  9 12  1  0  0  0  0
 11  6  1  0  0  0  0
 13  9  1  0  0  0  0
 14  9  1  0  0  0  0
M  END
$$$$
