butane_opt
 OpenBabel08242015413D

 14 13  0  0  0  0  0  0  0  0999 V2000
   -3.9525    0.2562    0.0314 C   0  0  0  0  0  0  0  0  0  0  0  0
   -2.7150   -0.5974    0.0216 C   0  0  0  0  0  0  0  0  0  0  0  0
   -4.9301   -0.3864    0.1041 H   0  0  0  0  0  0  0  0  0  0  0  0
   -4.0108    0.8720   -0.8248 H   0  0  0  0  0  0  0  0  0  0  0  0
   -3.8520    0.9197    0.8844 H   0  0  0  0  0  0  0  0  0  0  0  0
   -1.4141    0.2052   -0.0232 C   0  0  0  0  0  0  0  0  0  0  0  0
   -2.6441   -1.3606   -0.8289 H   0  0  0  0  0  0  0  0  0  0  0  0
   -2.7140   -1.2929    0.9748 H   0  0  0  0  0  0  0  0  0  0  0  0
   -0.1404   -0.7041    0.0535 C   0  0  0  0  0  0  0  0  0  0  0  0
   -1.3813    0.8634    0.8319 H   0  0  0  0  0  0  0  0  0  0  0  0
   -1.3912    0.8319   -0.9056 H   0  0  0  0  0  0  0  0  0  0  0  0
   -0.1766   -1.2424    0.9163 H   0  0  0  0  0  0  0  0  0  0  0  0
    0.7526   -0.1432    0.1064 H   0  0  0  0  0  0  0  0  0  0  0  0
   -0.0080   -1.4559   -0.8294 H   0  0  0  0  0  0  0  0  0  0  0  0
  1  3  1  0  0  0  0
  1  5  1  0  0  0  0
  2  1  1  0  0  0  0
  2  8  1  0  0  0  0
  4  1  1  0  0  0  0
  6  2  1  0  0  0  0
  6  9  1  0  0  0  0
  6 10  1  0  0  0  0
  7  2  1  0  0  0  0
  9 13  1  0  0  0  0
  9 12  1  0  0  0  0
 11  6  1  0  0  0  0
 14  9  1  0  0  0  0
M  END
$$$$
