14
butane_opt
C  -3.940355   0.268558  -0.012843
C  -2.693771  -0.610394   0.076325
H  -4.818897  -0.310549  -0.063909
H  -3.890554   0.805247  -0.884054
H  -4.064803   0.976547   0.849345
C  -1.408369   0.171558   0.044675
H  -2.695293  -1.319446  -0.762168
H  -2.697785  -1.275879   0.989376
C  -0.173176  -0.689405  -0.002242
H  -1.347213   0.862012   0.903243
H  -1.442677   0.817427  -0.856117
H  -0.118931  -1.324284   0.910723
H   0.787446  -0.063124  -0.047421
H  -0.156731  -1.313481  -0.858029
