butane_opt
 OpenBabel08242015413D

 14 13  0  0  0  0  0  0  0  0999 V2000
   -3.9569    0.2468   -0.0094 C   0  0  0  0  0  0  0  0  0  0  0  0
   -2.6997   -0.6142    0.0757 C   0  0  0  0  0  0  0  0  0  0  0  0
   -4.8484   -0.3215   -0.1912 H   0  0  0  0  0  0  0  0  0  0  0  0
   -3.9022    0.7649   -0.8583 H   0  0  0  0  0  0  0  0  0  0  0  0
   -4.0181    1.0348    0.9268 H   0  0  0  0  0  0  0  0  0  0  0  0
   -1.4019    0.2193    0.0276 C   0  0  0  0  0  0  0  0  0  0  0  0
   -2.7715   -1.1906   -0.6944 H   0  0  0  0  0  0  0  0  0  0  0  0
   -2.7794   -1.3672    1.0596 H   0  0  0  0  0  0  0  0  0  0  0  0
   -0.1447   -0.7056    0.0029 C   0  0  0  0  0  0  0  0  0  0  0  0
   -1.4067    0.9193    0.8761 H   0  0  0  0  0  0  0  0  0  0  0  0
   -1.4336    0.8893   -0.8599 H   0  0  0  0  0  0  0  0  0  0  0  0
   -0.0514   -1.3227    0.8719 H   0  0  0  0  0  0  0  0  0  0  0  0
    0.7625   -0.1334    0.0196 H   0  0  0  0  0  0  0  0  0  0  0  0
   -0.1362   -1.5035   -0.8741 H   0  0  0  0  0  0  0  0  0  0  0  0
  1  2  1  0  0  0  0
  1  5  1  0  0  0  0
  2  8  1  0  0  0  0
  3  1  1  0  0  0  0
  4  1  1  0  0  0  0
  6  2  1  0  0  0  0
  6 10  1  0  0  0  0
  7  2  1  0  0  0  0
  9 13  1  0  0  0  0
  9  6  1  0  0  0  0
  9 12  1  0  0  0  0
 11  6  1  0  0  0  0
 14  9  1  0  0  0  0
M  END
$$$$
