butane_opt
 OpenBabel08242015413D

 14 13  0  0  0  0  0  0  0  0999 V2000
   -3.9376    0.2752    0.0595 C   0  0  0  0  0  0  0  0  0  0  0  0
   -2.6697   -0.6372   -0.0250 C   0  0  0  0  0  0  0  0  0  0  0  0
   -4.8416   -0.2976    0.0050 H   0  0  0  0  0  0  0  0  0  0  0  0
   -4.0746    0.8485   -0.7168 H   0  0  0  0  0  0  0  0  0  0  0  0
   -3.9005    1.0099    0.9646 H   0  0  0  0  0  0  0  0  0  0  0  0
   -1.4129    0.1658   -0.0160 C   0  0  0  0  0  0  0  0  0  0  0  0
   -2.6839   -1.3432   -0.8877 H   0  0  0  0  0  0  0  0  0  0  0  0
   -2.7221   -1.2022    0.8310 H   0  0  0  0  0  0  0  0  0  0  0  0
   -0.1912   -0.6702    0.0706 C   0  0  0  0  0  0  0  0  0  0  0  0
   -1.4278    0.8515    0.7847 H   0  0  0  0  0  0  0  0  0  0  0  0
   -1.3559    0.7992   -0.9041 H   0  0  0  0  0  0  0  0  0  0  0  0
   -0.0879   -1.5190    1.1251 H   0  0  0  0  0  0  0  0  0  0  0  0
    0.7569   -0.0395   -0.1401 H   0  0  0  0  0  0  0  0  0  0  0  0
   -0.1667   -1.1766   -0.6688 H   0  0  0  0  0  0  0  0  0  0  0  0
  1  5  1  0  0  0  0
  2  6  1  0  0  0  0
  2  1  1  0  0  0  0
  2  8  1  0  0  0  0
  3  1  1  0  0  0  0
  4  1  1  0  0  0  0
  6  9  1  0  0  0  0
  6 10  1  0  0  0  0
  7  2  1  0  0  0  0
  9 12  1  0  0  0  0
 11  6  1  0  0  0  0
 13  9  1  0  0  0  0
 14  9  1  0  0  0  0
M  END
$$$$
