butane_opt
 OpenBabel08242015413D

 14 13  0  0  0  0  0  0  0  0999 V2000
   -3.9569    0.2815   -0.0306 C   0  0  0  0  0  0  0  0  0  0  0  0
   -2.6972   -0.6389    0.0963 C   0  0  0  0  0  0  0  0  0  0  0  0
   -4.8426   -0.2853   -0.1364 H   0  0  0  0  0  0  0  0  0  0  0  0
   -3.9232    0.7425   -0.8373 H   0  0  0  0  0  0  0  0  0  0  0  0
   -4.0613    1.0662    0.9126 H   0  0  0  0  0  0  0  0  0  0  0  0
   -1.4002    0.1733    0.0367 C   0  0  0  0  0  0  0  0  0  0  0  0
   -2.6733   -1.2656   -0.6818 H   0  0  0  0  0  0  0  0  0  0  0  0
   -2.7447   -1.3226    0.9979 H   0  0  0  0  0  0  0  0  0  0  0  0
   -0.1540   -0.6891   -0.0004 C   0  0  0  0  0  0  0  0  0  0  0  0
   -1.3995    0.8541    0.9042 H   0  0  0  0  0  0  0  0  0  0  0  0
   -1.4674    0.8158   -0.8451 H   0  0  0  0  0  0  0  0  0  0  0  0
   -0.0824   -1.2574    0.8470 H   0  0  0  0  0  0  0  0  0  0  0  0
    0.8065   -0.0077   -0.0531 H   0  0  0  0  0  0  0  0  0  0  0  0
   -0.1578   -1.3213   -0.8793 H   0  0  0  0  0  0  0  0  0  0  0  0
  1  2  1  0  0  0  0
  1  5  1  0  0  0  0
  2  8  1  0  0  0  0
  3  1  1  0  0  0  0
  4  1  1  0  0  0  0
  6  2  1  0  0  0  0
  6 10  1  0  0  0  0
  7  2  1  0  0  0  0
  9  6  1  0  0  0  0
  9 12  1  0  0  0  0
 11  6  1  0  0  0  0
 13  9  1  0  0  0  0
 14  9  1  0  0  0  0
M  END
$$$$
