14
butane_opt
C  -3.916056   0.247112  -0.032331
C  -2.703833  -0.595461   0.089293
H  -4.880614  -0.397123   0.130249
H  -3.934532   0.955748  -0.986046
H  -3.877277   0.770259   0.736002
C  -1.419292   0.208819   0.039697
H  -2.680758  -1.148127  -0.654318
H  -2.734164  -1.315446   1.025166
C  -0.176947  -0.711798  -0.001891
H  -1.411232   0.923084   0.945711
H  -1.466356   0.794194  -0.793517
H  -0.054815  -1.100361   0.735445
H   0.685377  -0.169652   0.200446
H  -0.076578  -1.584353  -1.068699
