14
butane_opt
C  -3.956937   0.281493  -0.030552
C  -2.697172  -0.638887   0.096315
H  -4.842598  -0.285277  -0.136387
H  -3.923230   0.742478  -0.837296
H  -4.061256   1.066190   0.912598
C  -1.400169   0.173280   0.036657
H  -2.673297  -1.265631  -0.681834
H  -2.744663  -1.322580   0.997895
C  -0.153973  -0.689122  -0.000434
H  -1.399544   0.854113   0.904178
H  -1.467376   0.815810  -0.845080
H  -0.082374  -1.257418   0.847002
H   0.806521  -0.007691  -0.053099
H  -0.157819  -1.321265  -0.879282
