14
butane_opt
C  -3.952543   0.256228   0.031375
C  -2.714973  -0.597361   0.021568
H  -4.930144  -0.386352   0.104099
H  -4.010763   0.872041  -0.824838
H  -3.851968   0.919667   0.884373
C  -1.414062   0.205231  -0.023228
H  -2.644123  -1.360632  -0.828853
H  -2.714047  -1.292901   0.974775
C  -0.140357  -0.704129   0.053471
H  -1.381307   0.863361   0.831918
H  -1.391245   0.831855  -0.905613
H  -0.176616  -1.242412   0.916301
H   0.752578  -0.143219   0.106406
H  -0.008011  -1.455875  -0.829432
