butane_opt
 OpenBabel08242015413D

 14 13  0  0  0  0  0  0  0  0999 V2000
   -3.9121    0.2402    0.0374 C   0  0  0  0  0  0  0  0  0  0  0  0
   -2.7084   -0.5853    0.0206 C   0  0  0  0  0  0  0  0  0  0  0  0
   -4.8947   -0.3896   -0.1054 H   0  0  0  0  0  0  0  0  0  0  0  0
   -3.8604    0.8273   -0.8309 H   0  0  0  0  0  0  0  0  0  0  0  0
   -3.9304    0.9844    0.9618 H   0  0  0  0  0  0  0  0  0  0  0  0
   -1.4303    0.2039    0.0057 C   0  0  0  0  0  0  0  0  0  0  0  0
   -2.7111   -1.3677   -0.8931 H   0  0  0  0  0  0  0  0  0  0  0  0
   -2.7114   -1.1497    0.8776 H   0  0  0  0  0  0  0  0  0  0  0  0
   -0.1617   -0.7115    0.0523 C   0  0  0  0  0  0  0  0  0  0  0  0
   -1.4137    0.8412    0.8860 H   0  0  0  0  0  0  0  0  0  0  0  0
   -1.3374    0.8597   -0.9171 H   0  0  0  0  0  0  0  0  0  0  0  0
   -0.0084   -1.4584    1.0398 H   0  0  0  0  0  0  0  0  0  0  0  0
    0.6506   -0.2044   -0.2380 H   0  0  0  0  0  0  0  0  0  0  0  0
   -0.2387   -1.1959   -0.7187 H   0  0  0  0  0  0  0  0  0  0  0  0
  1  5  1  0  0  0  0
  2  1  1  0  0  0  0
  2  8  1  0  0  0  0
  3  1  1  0  0  0  0
  4  1  1  0  0  0  0
  6  2  1  0  0  0  0
  6  9  1  0  0  0  0
  6 10  1  0  0  0  0
  7  2  1  0  0  0  0
  9 12  1  0  0  0  0
 11  6  1  0  0  0  0
 13  9  1  0  0  0  0
 14  9  1  0  0  0  0
M  END
$$$$
