14
butane_opt
C  -3.951675   0.276383   0.021442
C  -2.698047  -0.625581   0.018355
H  -4.856350  -0.312643   0.164037
H  -4.013191   1.002102  -0.936667
H  -3.890577   0.865087   0.841168
C  -1.395183   0.158487   0.020890
H  -2.722823  -1.273588  -0.823286
H  -2.693784  -1.253411   0.920303
C  -0.166337  -0.678894   0.035517
H  -1.419526   0.877156   0.897731
H  -1.326484   0.798424  -0.897384
H  -0.161762  -1.273657   0.927991
H   0.735494  -0.057083   0.013996
H  -0.149893  -1.406467  -0.844493
