butane_opt
 OpenBabel08242015413D

 14 13  0  0  0  0  0  0  0  0999 V2000
   -3.9805    0.2871   -0.0104 C   0  0  0  0  0  0  0  0  0  0  0  0
   -2.6870   -0.6305    0.0578 C   0  0  0  0  0  0  0  0  0  0  0  0
   -4.8390   -0.3039   -0.0321 H   0  0  0  0  0  0  0  0  0  0  0  0
   -4.0691    0.8283   -0.8882 H   0  0  0  0  0  0  0  0  0  0  0  0
   -3.9824    0.9136    0.8009 H   0  0  0  0  0  0  0  0  0  0  0  0
   -1.3989    0.1657    0.0675 C   0  0  0  0  0  0  0  0  0  0  0  0
   -2.6839   -1.3685   -0.8524 H   0  0  0  0  0  0  0  0  0  0  0  0
   -2.6870   -1.1849    0.8910 H   0  0  0  0  0  0  0  0  0  0  0  0
   -0.1583   -0.6755    0.0123 C   0  0  0  0  0  0  0  0  0  0  0  0
   -1.2884    0.8062    0.9038 H   0  0  0  0  0  0  0  0  0  0  0  0
   -1.3835    0.7650   -0.8529 H   0  0  0  0  0  0  0  0  0  0  0  0
    0.0549   -1.4217    1.0000 H   0  0  0  0  0  0  0  0  0  0  0  0
    0.7924   -0.0569   -0.2640 H   0  0  0  0  0  0  0  0  0  0  0  0
   -0.2590   -1.1902   -0.7772 H   0  0  0  0  0  0  0  0  0  0  0  0
  1  2  1  0  0  0  0
  1  5  1  0  0  0  0
  2  6  1  0  0  0  0
  2  8  1  0  0  0  0
  3  1  1  0  0  0  0
  4  1  1  0  0  0  0
  6 10  1  0  0  0  0
  7  2  1  0  0  0  0
  9  6  1  0  0  0  0
  9 12  1  0  0  0  0
 11  6  1  0  0  0  0
 13  9  1  0  0  0  0
 14  9  1  0  0  0  0
M  END
$$$$
