butane_opt
 OpenBabel08242015413D

 14 13  0  0  0  0  0  0  0  0999 V2000
   -3.9046    0.2508    0.0687 C   0  0  0  0  0  0  0  0  0  0  0  0
   -2.7110   -0.5801   -0.0451 C   0  0  0  0  0  0  0  0  0  0  0  0
   -4.9010   -0.4306    0.3507 H   0  0  0  0  0  0  0  0  0  0  0  0
   -4.1087    0.9813   -0.8933 H   0  0  0  0  0  0  0  0  0  0  0  0
   -3.7931    0.8303    0.8744 H   0  0  0  0  0  0  0  0  0  0  0  0
   -1.4171    0.1844   -0.0279 C   0  0  0  0  0  0  0  0  0  0  0  0
   -2.8107   -1.3637   -0.9770 H   0  0  0  0  0  0  0  0  0  0  0  0
   -2.6753   -1.1409    0.8305 H   0  0  0  0  0  0  0  0  0  0  0  0
   -0.1572   -0.7014    0.0894 C   0  0  0  0  0  0  0  0  0  0  0  0
   -1.5202    0.8168    0.8110 H   0  0  0  0  0  0  0  0  0  0  0  0
   -1.4172    0.8560   -0.9535 H   0  0  0  0  0  0  0  0  0  0  0  0
   -0.1384   -1.3749    1.0041 H   0  0  0  0  0  0  0  0  0  0  0  0
    0.7827   -0.0989    0.0849 H   0  0  0  0  0  0  0  0  0  0  0  0
   -0.1539   -1.3865   -0.7191 H   0  0  0  0  0  0  0  0  0  0  0  0
  1  3  1  0  0  0  0
  1  5  1  0  0  0  0
  2  6  1  0  0  0  0
  2  1  1  0  0  0  0
  2  8  1  0  0  0  0
  4  1  1  0  0  0  0
  6  9  1  0  0  0  0
  6 10  1  0  0  0  0
  7  2  1  0  0  0  0
  9 12  1  0  0  0  0
 11  6  1  0  0  0  0
 13  9  1  0  0  0  0
 14  9  1  0  0  0  0
M  END
$$$$
