butane_opt
 OpenBabel08242015413D

 14 13  0  0  0  0  0  0  0  0999 V2000
   -3.9002    0.2577   -0.0097 C   0  0  0  0  0  0  0  0  0  0  0  0
   -2.7153   -0.6058    0.0460 C   0  0  0  0  0  0  0  0  0  0  0  0
   -4.8505   -0.3628    0.1608 H   0  0  0  0  0  0  0  0  0  0  0  0
   -4.0938    0.9937   -0.9685 H   0  0  0  0  0  0  0  0  0  0  0  0
   -3.8429    0.7862    0.8061 H   0  0  0  0  0  0  0  0  0  0  0  0
   -1.4099    0.1874    0.0408 C   0  0  0  0  0  0  0  0  0  0  0  0
   -2.7800   -1.2352   -0.8265 H   0  0  0  0  0  0  0  0  0  0  0  0
   -2.7169   -1.2434    0.9397 H   0  0  0  0  0  0  0  0  0  0  0  0
   -0.1714   -0.7013    0.0125 C   0  0  0  0  0  0  0  0  0  0  0  0
   -1.4068    0.9891    0.9937 H   0  0  0  0  0  0  0  0  0  0  0  0
   -1.4462    0.8116   -0.8341 H   0  0  0  0  0  0  0  0  0  0  0  0
   -0.0979   -1.3337    0.9195 H   0  0  0  0  0  0  0  0  0  0  0  0
    0.7305   -0.1215   -0.0206 H   0  0  0  0  0  0  0  0  0  0  0  0
   -0.1530   -1.4183   -0.8311 H   0  0  0  0  0  0  0  0  0  0  0  0
  1  2  1  0  0  0  0
  1  3  1  0  0  0  0
  1  5  1  0  0  0  0
  2  8  1  0  0  0  0
  4  1  1  0  0  0  0
  6  2  1  0  0  0  0
  6 10  1  0  0  0  0
  7  2  1  0  0  0  0
  9  6  1  0  0  0  0
  9 12  1  0  0  0  0
 11  6  1  0  0  0  0
 13  9  1  0  0  0  0
 14  9  1  0  0  0  0
M  END
$$$$
