butane_opt
 OpenBabel08242015413D

 14 13  0  0  0  0  0  0  0  0999 V2000
   -3.9661    0.2867    0.0816 C   0  0  0  0  0  0  0  0  0  0  0  0
   -2.6910   -0.6601   -0.0321 C   0  0  0  0  0  0  0  0  0  0  0  0
   -4.7969   -0.2179    0.1269 H   0  0  0  0  0  0  0  0  0  0  0  0
   -4.0056    0.8360   -0.7505 H   0  0  0  0  0  0  0  0  0  0  0  0
   -3.9802    1.0228    1.0124 H   0  0  0  0  0  0  0  0  0  0  0  0
   -1.3867    0.1703   -0.0684 C   0  0  0  0  0  0  0  0  0  0  0  0
   -2.7529   -1.2638   -0.8552 H   0  0  0  0  0  0  0  0  0  0  0  0
   -2.7247   -1.3182    0.8567 H   0  0  0  0  0  0  0  0  0  0  0  0
   -0.1622   -0.6765    0.0956 C   0  0  0  0  0  0  0  0  0  0  0  0
   -1.4449    0.8505    0.7683 H   0  0  0  0  0  0  0  0  0  0  0  0
   -1.2565    0.9073   -1.0235 H   0  0  0  0  0  0  0  0  0  0  0  0
   -0.2676   -1.2454    0.9411 H   0  0  0  0  0  0  0  0  0  0  0  0
    0.7681   -0.0802    0.1910 H   0  0  0  0  0  0  0  0  0  0  0  0
   -0.1013   -1.4020   -0.7414 H   0  0  0  0  0  0  0  0  0  0  0  0
  1  3  1  0  0  0  0
  1  5  1  0  0  0  0
  2  1  1  0  0  0  0
  2  8  1  0  0  0  0
  4  1  1  0  0  0  0
  6  2  1  0  0  0  0
  6  9  1  0  0  0  0
  6 10  1  0  0  0  0
  7  2  1  0  0  0  0
  9 13  1  0  0  0  0
  9 12  1  0  0  0  0
 11  6  1  0  0  0  0
 14  9  1  0  0  0  0
M  END
$$$$
