14
butane_opt
C  -3.958567   0.271568   0.038520
C  -2.704997  -0.622456   0.005493
H  -4.854095  -0.325641   0.184921
H  -4.061597   0.950804  -0.881697
H  -3.917706   0.926918   0.884633
C  -1.385990   0.178052  -0.006795
H  -2.756535  -1.353767  -0.896707
H  -2.680617  -1.231205   0.880605
C  -0.150366  -0.689251   0.062490
H  -1.424729   0.824246   0.808155
H  -1.353154   0.856741  -0.914433
H  -0.196771  -1.304245   0.942522
H   0.788076  -0.087939   0.053703
H  -0.162725  -1.377997  -0.824782
