butane_opt
 OpenBabel08242015413D

 14 13  0  0  0  0  0  0  0  0999 V2000
   -3.9668    0.2962    0.0889 C   0  0  0  0  0  0  0  0  0  0  0  0
   -2.6953   -0.6409   -0.0367 C   0  0  0  0  0  0  0  0  0  0  0  0
   -4.8864   -0.2948    0.1735 H   0  0  0  0  0  0  0  0  0  0  0  0
   -4.0680    1.0101   -0.8762 H   0  0  0  0  0  0  0  0  0  0  0  0
   -3.8781    0.8573    0.8693 H   0  0  0  0  0  0  0  0  0  0  0  0
   -1.3871    0.1625   -0.0337 C   0  0  0  0  0  0  0  0  0  0  0  0
   -2.8180   -1.4999   -0.9853 H   0  0  0  0  0  0  0  0  0  0  0  0
   -2.6789   -1.1701    0.7997 H   0  0  0  0  0  0  0  0  0  0  0  0
   -0.1648   -0.6736    0.0784 C   0  0  0  0  0  0  0  0  0  0  0  0
   -1.4248    0.8120    0.7811 H   0  0  0  0  0  0  0  0  0  0  0  0
   -1.2606    0.8220   -0.9278 H   0  0  0  0  0  0  0  0  0  0  0  0
   -0.1679   -1.4003    1.0494 H   0  0  0  0  0  0  0  0  0  0  0  0
    0.7940   -0.0450    0.0461 H   0  0  0  0  0  0  0  0  0  0  0  0
   -0.0872   -1.2689   -0.6638 H   0  0  0  0  0  0  0  0  0  0  0  0
  1  3  1  0  0  0  0
  1  5  1  0  0  0  0
  2  6  1  0  0  0  0
  2  1  1  0  0  0  0
  2  8  1  0  0  0  0
  4  1  1  0  0  0  0
  6  9  1  0  0  0  0
  6 10  1  0  0  0  0
  7  2  1  0  0  0  0
  9 12  1  0  0  0  0
 11  6  1  0  0  0  0
 13  9  1  0  0  0  0
 14  9  1  0  0  0  0
M  END
$$$$
