14
butane_opt
C  -3.932608   0.265619  -0.022787
C  -2.692331  -0.606500   0.060137
H  -4.827957  -0.357666   0.273440
H  -4.015605   1.120318  -1.110825
H  -3.927530   0.724596   0.694526
C  -1.416898   0.161502   0.063227
H  -2.696338  -1.261166  -0.758023
H  -2.703744  -1.256954   0.970773
C  -0.152017  -0.677244  -0.009980
H  -1.349212   0.962365   1.030680
H  -1.529508   0.622120  -0.746500
H  -0.167510  -1.252752   0.853479
H   0.743410  -0.073001   0.024555
H  -0.223497  -1.404489  -0.899280
