butane_opt
 OpenBabel08242015413D

 14 13  0  0  0  0  0  0  0  0999 V2000
   -3.9312    0.2371    0.0596 C   0  0  0  0  0  0  0  0  0  0  0  0
   -2.6959   -0.5766   -0.0226 C   0  0  0  0  0  0  0  0  0  0  0  0
   -4.8498   -0.3677   -0.0105 H   0  0  0  0  0  0  0  0  0  0  0  0
   -3.8902    0.7842   -0.7771 H   0  0  0  0  0  0  0  0  0  0  0  0
   -3.9067    0.9930    1.0056 H   0  0  0  0  0  0  0  0  0  0  0  0
   -1.4173    0.2057   -0.0048 C   0  0  0  0  0  0  0  0  0  0  0  0
   -2.7718   -1.3908   -0.9548 H   0  0  0  0  0  0  0  0  0  0  0  0
   -2.6062   -1.1892    0.8661 H   0  0  0  0  0  0  0  0  0  0  0  0
   -0.1696   -0.7172    0.0721 C   0  0  0  0  0  0  0  0  0  0  0  0
   -1.5180    0.7880    0.7923 H   0  0  0  0  0  0  0  0  0  0  0  0
   -1.3913    0.9129   -0.9841 H   0  0  0  0  0  0  0  0  0  0  0  0
   -0.0415   -1.4861    1.0780 H   0  0  0  0  0  0  0  0  0  0  0  0
    0.7831   -0.1255   -0.1393 H   0  0  0  0  0  0  0  0  0  0  0  0
   -0.2561   -1.1658   -0.6646 H   0  0  0  0  0  0  0  0  0  0  0  0
  1  5  1  0  0  0  0
  2  6  1  0  0  0  0
  2  1  1  0  0  0  0
  2  8  1  0  0  0  0
  3  1  1  0  0  0  0
  4  1  1  0  0  0  0
  6  9  1  0  0  0  0
  6 10  1  0  0  0  0
  7  2  1  0  0  0  0
  9 12  1  0  0  0  0
 11  6  1  0  0  0  0
 13  9  1  0  0  0  0
 14  9  1  0  0  0  0
M  END
$$$$
