14
butane_opt
C  -3.940984   0.252284  -0.027703
C  -2.720151  -0.595590   0.072416
H  -4.847904  -0.367127  -0.069771
H  -3.822807   0.907650  -0.946536
H  -3.970468   0.906786   0.805103
C  -1.410092   0.179642   0.079152
H  -2.723066  -1.154576  -0.750609
H  -2.640453  -1.239696   0.967382
C  -0.157380  -0.698238  -0.021543
H  -1.340048   0.967489   1.022517
H  -1.411324   0.708674  -0.729760
H  -0.051153  -1.455426   0.961889
H   0.760081  -0.135296  -0.275325
H  -0.231665  -1.269695  -0.777600
