14
butane_opt
C  -3.936057   0.248555   0.004085
C  -2.694357  -0.587858   0.034467
H  -4.875753  -0.417057   0.244649
H  -3.973740   1.021705  -1.003211
H  -3.788536   0.762013   0.790284
C  -1.432599   0.184031   0.027813
H  -2.676756  -1.268189  -0.781493
H  -2.711455  -1.152342   0.904812
C  -0.156125  -0.698538   0.011353
H  -1.373488   0.966644   0.990056
H  -1.439410   0.698729  -0.818046
H  -0.152249  -1.384319   0.934280
H   0.721124  -0.121041   0.073971
H  -0.124289  -1.330929  -0.834034
