butane_opt
 OpenBabel08242015413D

 14 13  0  0  0  0  0  0  0  0999 V2000
   -3.9246    0.2606    0.0739 C   0  0  0  0  0  0  0  0  0  0  0  0
   -2.6951   -0.6173   -0.0358 C   0  0  0  0  0  0  0  0  0  0  0  0
   -4.8932   -0.3699    0.2726 H   0  0  0  0  0  0  0  0  0  0  0  0
   -3.9620    0.9784   -0.9200 H   0  0  0  0  0  0  0  0  0  0  0  0
   -3.8064    0.8435    0.9011 H   0  0  0  0  0  0  0  0  0  0  0  0
   -1.4105    0.2068   -0.0282 C   0  0  0  0  0  0  0  0  0  0  0  0
   -2.7646   -1.3492   -0.9327 H   0  0  0  0  0  0  0  0  0  0  0  0
   -2.7422   -1.1413    0.8187 H   0  0  0  0  0  0  0  0  0  0  0  0
   -0.1737   -0.7061    0.0870 C   0  0  0  0  0  0  0  0  0  0  0  0
   -1.4767    0.8134    0.7749 H   0  0  0  0  0  0  0  0  0  0  0  0
   -1.3279    0.8559   -0.9348 H   0  0  0  0  0  0  0  0  0  0  0  0
   -0.1219   -1.3102    0.9966 H   0  0  0  0  0  0  0  0  0  0  0  0
    0.6700   -0.1426    0.0489 H   0  0  0  0  0  0  0  0  0  0  0  0
   -0.1482   -1.3833   -0.7541 H   0  0  0  0  0  0  0  0  0  0  0  0
  1  3  1  0  0  0  0
  1  5  1  0  0  0  0
  2  6  1  0  0  0  0
  2  1  1  0  0  0  0
  2  8  1  0  0  0  0
  4  1  1  0  0  0  0
  6  9  1  0  0  0  0
  6 10  1  0  0  0  0
  7  2  1  0  0  0  0
  9 12  1  0  0  0  0
 11  6  1  0  0  0  0
 13  9  1  0  0  0  0
 14  9  1  0  0  0  0
M  END
$$$$
