butane_opt
 OpenBabel08242015413D

 14 13  0  0  0  0  0  0  0  0999 V2000
   -3.9661    0.2743    0.0635 C   0  0  0  0  0  0  0  0  0  0  0  0
   -2.6928   -0.6245   -0.0136 C   0  0  0  0  0  0  0  0  0  0  0  0
   -4.8339   -0.3106    0.1944 H   0  0  0  0  0  0  0  0  0  0  0  0
   -4.1926    1.0157   -0.9272 H   0  0  0  0  0  0  0  0  0  0  0  0
   -3.9338    0.8992    0.8767 H   0  0  0  0  0  0  0  0  0  0  0  0
   -1.3969    0.1685   -0.0090 C   0  0  0  0  0  0  0  0  0  0  0  0
   -2.7535   -1.4555   -0.9485 H   0  0  0  0  0  0  0  0  0  0  0  0
   -2.6994   -1.1569    0.7893 H   0  0  0  0  0  0  0  0  0  0  0  0
   -0.1486   -0.6819    0.0599 C   0  0  0  0  0  0  0  0  0  0  0  0
   -1.3860    0.7908    0.7917 H   0  0  0  0  0  0  0  0  0  0  0  0
   -1.3227    0.7919   -0.9078 H   0  0  0  0  0  0  0  0  0  0  0  0
   -0.1898   -1.3985    1.0183 H   0  0  0  0  0  0  0  0  0  0  0  0
    0.8266   -0.0118    0.0400 H   0  0  0  0  0  0  0  0  0  0  0  0
   -0.0880   -1.2465   -0.6975 H   0  0  0  0  0  0  0  0  0  0  0  0
  1  3  1  0  0  0  0
  1  5  1  0  0  0  0
  2  6  1  0  0  0  0
  2  1  1  0  0  0  0
  2  8  1  0  0  0  0
  4  1  1  0  0  0  0
  6  9  1  0  0  0  0
  6 10  1  0  0  0  0
  7  2  1  0  0  0  0
  9 12  1  0  0  0  0
 11  6  1  0  0  0  0
 13  9  1  0  0  0  0
 14  9  1  0  0  0  0
M  END
$$$$
