butane_opt
 OpenBabel08242015413D

 14 13  0  0  0  0  0  0  0  0999 V2000
   -3.9399    0.2750    0.0328 C   0  0  0  0  0  0  0  0  0  0  0  0
   -2.6713   -0.6309   -0.0077 C   0  0  0  0  0  0  0  0  0  0  0  0
   -4.8024   -0.3004    0.2112 H   0  0  0  0  0  0  0  0  0  0  0  0
   -4.1449    0.9360   -0.9195 H   0  0  0  0  0  0  0  0  0  0  0  0
   -3.8540    0.9041    0.8607 H   0  0  0  0  0  0  0  0  0  0  0  0
   -1.4090    0.1669    0.0157 C   0  0  0  0  0  0  0  0  0  0  0  0
   -2.6766   -1.2982   -0.8290 H   0  0  0  0  0  0  0  0  0  0  0  0
   -2.6316   -1.2576    0.9011 H   0  0  0  0  0  0  0  0  0  0  0  0
   -0.1872   -0.6734    0.0472 C   0  0  0  0  0  0  0  0  0  0  0  0
   -1.3501    0.7881    0.8437 H   0  0  0  0  0  0  0  0  0  0  0  0
   -1.3533    0.7890   -0.8947 H   0  0  0  0  0  0  0  0  0  0  0  0
   -0.2588   -1.2563    0.9567 H   0  0  0  0  0  0  0  0  0  0  0  0
    0.6995   -0.1298    0.0329 H   0  0  0  0  0  0  0  0  0  0  0  0
   -0.1535   -1.2906   -0.7904 H   0  0  0  0  0  0  0  0  0  0  0  0
  1  3  1  0  0  0  0
  1  5  1  0  0  0  0
  2  6  1  0  0  0  0
  2  1  1  0  0  0  0
  2  8  1  0  0  0  0
  4  1  1  0  0  0  0
  6  9  1  0  0  0  0
  6 10  1  0  0  0  0
  7  2  1  0  0  0  0
  9 12  1  0  0  0  0
 11  6  1  0  0  0  0
 13  9  1  0  0  0  0
 14  9  1  0  0  0  0
M  END
$$$$
