butane_opt
 OpenBabel08242015413D

 14 13  0  0  0  0  0  0  0  0999 V2000
   -3.9534    0.2825   -0.0061 C   0  0  0  0  0  0  0  0  0  0  0  0
   -2.7074   -0.6312    0.0659 C   0  0  0  0  0  0  0  0  0  0  0  0
   -4.8349   -0.2992    0.0915 H   0  0  0  0  0  0  0  0  0  0  0  0
   -3.9966    0.9630   -0.9101 H   0  0  0  0  0  0  0  0  0  0  0  0
   -3.9802    0.8538    0.7931 H   0  0  0  0  0  0  0  0  0  0  0  0
   -1.3908    0.1706    0.0320 C   0  0  0  0  0  0  0  0  0  0  0  0
   -2.6626   -1.2825   -0.7690 H   0  0  0  0  0  0  0  0  0  0  0  0
   -2.7812   -1.3179    0.9905 H   0  0  0  0  0  0  0  0  0  0  0  0
   -0.1558   -0.6873    0.0057 C   0  0  0  0  0  0  0  0  0  0  0  0
   -1.3784    0.8483    0.8943 H   0  0  0  0  0  0  0  0  0  0  0  0
   -1.4218    0.8293   -0.8839 H   0  0  0  0  0  0  0  0  0  0  0  0
   -0.1560   -1.1605    0.8289 H   0  0  0  0  0  0  0  0  0  0  0  0
    0.7861   -0.0425    0.1674 H   0  0  0  0  0  0  0  0  0  0  0  0
   -0.1253   -1.4733   -0.9450 H   0  0  0  0  0  0  0  0  0  0  0  0
  1  2  1  0  0  0  0
  1  3  1  0  0  0  0
  1  5  1  0  0  0  0
  2  8  1  0  0  0  0
  4  1  1  0  0  0  0
  6  2  1  0  0  0  0
  6 10  1  0  0  0  0
  7  2  1  0  0  0  0
  9  6  1  0  0  0  0
  9 13  1  0  0  0  0
  9 12  1  0  0  0  0
 11  6  1  0  0  0  0
 14  9  1  0  0  0  0
M  END
$$$$
