14
butane_opt
C  -3.920888   0.247505   0.009209
C  -2.697596  -0.589060   0.065693
H  -4.842300  -0.388752   0.010429
H  -3.899609   0.957581  -0.953592
H  -3.967422   0.887458   0.842858
C  -1.438105   0.168399  -0.000484
H  -2.707421  -1.169444  -0.693408
H  -2.717202  -1.309936   1.043377
C  -0.151541  -0.694396   0.014702
H  -1.408638   0.952409   0.906377
H  -1.387069   0.804954  -0.867013
H  -0.296073  -1.116186   0.813892
H   0.769362  -0.102408   0.200281
H  -0.058776  -1.593191  -0.972908
