14
butane_opt
C  -3.943830   0.267336   0.036426
C  -2.700250  -0.618790   0.000713
H  -4.847324  -0.293531   0.185379
H  -4.045322   0.938576  -0.886409
H  -3.916407   0.872002   0.887018
C  -1.393231   0.176863  -0.002446
H  -2.722921  -1.326005  -0.838341
H  -2.674938  -1.189431   0.855381
C  -0.176627  -0.692670   0.063669
H  -1.387928   0.834424   0.828529
H  -1.356766   0.843347  -0.920677
H  -0.125670  -1.283230   0.934441
H   0.759946  -0.082202   0.008294
H  -0.142687  -1.372558  -0.802398
