butane_opt
 OpenBabel08242015413D

 14 13  0  0  0  0  0  0  0  0999 V2000
   -3.9285    0.2431    0.0573 C   0  0  0  0  0  0  0  0  0  0  0  0
   -2.7038   -0.5674    0.0086 C   0  0  0  0  0  0  0  0  0  0  0  0
   -4.8888   -0.3819   -0.1729 H   0  0  0  0  0  0  0  0  0  0  0  0
   -3.7830    0.6404   -0.7368 H   0  0  0  0  0  0  0  0  0  0  0  0
   -3.9690    1.0761    1.0524 H   0  0  0  0  0  0  0  0  0  0  0  0
   -1.4044    0.1920   -0.0329 C   0  0  0  0  0  0  0  0  0  0  0  0
   -2.7581   -1.2559   -0.8756 H   0  0  0  0  0  0  0  0  0  0  0  0
   -2.7115   -1.2793    0.9360 H   0  0  0  0  0  0  0  0  0  0  0  0
   -0.1680   -0.7144    0.0646 C   0  0  0  0  0  0  0  0  0  0  0  0
   -1.4462    0.8948    0.7898 H   0  0  0  0  0  0  0  0  0  0  0  0
   -1.4284    0.8305   -0.9207 H   0  0  0  0  0  0  0  0  0  0  0  0
   -0.1662   -1.4634    1.0553 H   0  0  0  0  0  0  0  0  0  0  0  0
    0.6820   -0.1579   -0.1145 H   0  0  0  0  0  0  0  0  0  0  0  0
   -0.0864   -1.2279   -0.7129 H   0  0  0  0  0  0  0  0  0  0  0  0
  1  5  1  0  0  0  0
  2  1  1  0  0  0  0
  2  8  1  0  0  0  0
  3  1  1  0  0  0  0
  4  1  1  0  0  0  0
  6  2  1  0  0  0  0
  6  9  1  0  0  0  0
  6 10  1  0  0  0  0
  7  2  1  0  0  0  0
  9 12  1  0  0  0  0
 11  6  1  0  0  0  0
 13  9  1  0  0  0  0
 14  9  1  0  0  0  0
M  END
$$$$
