butane_opt
 OpenBabel08242015413D

 14 13  0  0  0  0  0  0  0  0999 V2000
   -3.9344    0.2743    0.0292 C   0  0  0  0  0  0  0  0  0  0  0  0
   -2.6828   -0.6289    0.0294 C   0  0  0  0  0  0  0  0  0  0  0  0
   -4.8588   -0.3447    0.1923 H   0  0  0  0  0  0  0  0  0  0  0  0
   -4.0558    0.9547   -0.8662 H   0  0  0  0  0  0  0  0  0  0  0  0
   -3.9912    0.9161    0.9070 H   0  0  0  0  0  0  0  0  0  0  0  0
   -1.4001    0.1632   -0.0306 C   0  0  0  0  0  0  0  0  0  0  0  0
   -2.6449   -1.3503   -0.8728 H   0  0  0  0  0  0  0  0  0  0  0  0
   -2.6908   -1.2766    0.9281 H   0  0  0  0  0  0  0  0  0  0  0  0
   -0.1842   -0.6728    0.0465 C   0  0  0  0  0  0  0  0  0  0  0  0
   -1.3843    0.9329    0.8558 H   0  0  0  0  0  0  0  0  0  0  0  0
   -1.4102    0.7829   -0.8828 H   0  0  0  0  0  0  0  0  0  0  0  0
   -0.2544   -1.2173    0.9336 H   0  0  0  0  0  0  0  0  0  0  0  0
    0.7020   -0.1264    0.1713 H   0  0  0  0  0  0  0  0  0  0  0  0
   -0.0080   -1.3817   -0.8230 H   0  0  0  0  0  0  0  0  0  0  0  0
  1  2  1  0  0  0  0
  1  3  1  0  0  0  0
  1  5  1  0  0  0  0
  2  8  1  0  0  0  0
  4  1  1  0  0  0  0
  6  2  1  0  0  0  0
  6  9  1  0  0  0  0
  6 10  1  0  0  0  0
  7  2  1  0  0  0  0
  9 13  1  0  0  0  0
  9 12  1  0  0  0  0
 11  6  1  0  0  0  0
 14  9  1  0  0  0  0
M  END
$$$$
