butane_opt
 OpenBabel08242015413D

 14 13  0  0  0  0  0  0  0  0999 V2000
   -3.9670    0.2843   -0.0370 C   0  0  0  0  0  0  0  0  0  0  0  0
   -2.6853   -0.6463    0.1035 C   0  0  0  0  0  0  0  0  0  0  0  0
   -4.8573   -0.3104   -0.0763 H   0  0  0  0  0  0  0  0  0  0  0  0
   -3.8752    1.0060   -1.0381 H   0  0  0  0  0  0  0  0  0  0  0  0
   -4.0866    0.8951    0.7607 H   0  0  0  0  0  0  0  0  0  0  0  0
   -1.4026    0.1685    0.0870 C   0  0  0  0  0  0  0  0  0  0  0  0
   -2.6668   -1.3813   -0.7668 H   0  0  0  0  0  0  0  0  0  0  0  0
   -2.7806   -1.2158    0.9777 H   0  0  0  0  0  0  0  0  0  0  0  0
   -0.1543   -0.6839   -0.0308 C   0  0  0  0  0  0  0  0  0  0  0  0
   -1.3358    0.9399    1.0338 H   0  0  0  0  0  0  0  0  0  0  0  0
   -1.4545    0.7185   -0.7585 H   0  0  0  0  0  0  0  0  0  0  0  0
    0.0666   -1.3251    0.9267 H   0  0  0  0  0  0  0  0  0  0  0  0
    0.8050   -0.0364   -0.2406 H   0  0  0  0  0  0  0  0  0  0  0  0
   -0.3452   -1.2163   -0.8435 H   0  0  0  0  0  0  0  0  0  0  0  0
  1  2  1  0  0  0  0
  1  5  1  0  0  0  0
  2  8  1  0  0  0  0
  3  1  1  0  0  0  0
  4  1  1  0  0  0  0
  6  2  1  0  0  0  0
  6 10  1  0  0  0  0
  7  2  1  0  0  0  0
  9  6  1  0  0  0  0
  9 12  1  0  0  0  0
 11  6  1  0  0  0  0
 13  9  1  0  0  0  0
 14  9  1  0  0  0  0
M  END
$$$$
