14
butane_opt
C  -3.917814   0.255292  -0.038069
C  -2.711658  -0.610266   0.076800
H  -4.812406  -0.328486   0.009778
H  -3.903770   0.943317  -0.954191
H  -3.916306   0.896568   0.778074
C  -1.413486   0.192326   0.085100
H  -2.705388  -1.248361  -0.757302
H  -2.751148  -1.263952   1.005875
C  -0.176576  -0.696137  -0.023877
H  -1.324897   0.973206   0.993664
H  -1.499288   0.745967  -0.751493
H  -0.051844  -1.432928   0.972496
H   0.757407  -0.095258  -0.210030
H  -0.194334  -1.351671  -0.848303
