14
butane_opt
C  -3.967006   0.284308  -0.036991
C  -2.685270  -0.646288   0.103488
H  -4.857312  -0.310447  -0.076334
H  -3.875239   1.006032  -1.038128
H  -4.086600   0.895066   0.760708
C  -1.402556   0.168537   0.086953
H  -2.666808  -1.381270  -0.766792
H  -2.780557  -1.215809   0.977732
C  -0.154325  -0.683862  -0.030779
H  -1.335832   0.939857   1.033795
H  -1.454530   0.718547  -0.758506
H   0.066610  -1.325126   0.926743
H   0.805002  -0.036424  -0.240649
H  -0.345230  -1.216338  -0.843521
