butane_opt
 OpenBabel08242015413D

 14 13  0  0  0  0  0  0  0  0999 V2000
   -3.9441    0.2652   -0.0225 C   0  0  0  0  0  0  0  0  0  0  0  0
   -2.6850   -0.6232    0.1052 C   0  0  0  0  0  0  0  0  0  0  0  0
   -4.8330   -0.2979   -0.2724 H   0  0  0  0  0  0  0  0  0  0  0  0
   -3.8449    0.8351   -0.9000 H   0  0  0  0  0  0  0  0  0  0  0  0
   -4.1717    1.1144    0.9308 H   0  0  0  0  0  0  0  0  0  0  0  0
   -1.3964    0.1579    0.0533 C   0  0  0  0  0  0  0  0  0  0  0  0
   -2.7361   -1.2457   -0.7240 H   0  0  0  0  0  0  0  0  0  0  0  0
   -2.7000   -1.3249    1.0348 H   0  0  0  0  0  0  0  0  0  0  0  0
   -0.1611   -0.6770   -0.0158 C   0  0  0  0  0  0  0  0  0  0  0  0
   -1.3911    0.8159    0.8833 H   0  0  0  0  0  0  0  0  0  0  0  0
   -1.4210    0.8825   -0.8819 H   0  0  0  0  0  0  0  0  0  0  0  0
   -0.1241   -1.2677    0.8435 H   0  0  0  0  0  0  0  0  0  0  0  0
    0.7731   -0.0643   -0.0304 H   0  0  0  0  0  0  0  0  0  0  0  0
   -0.3251   -1.3975   -0.8797 H   0  0  0  0  0  0  0  0  0  0  0  0
  1  2  1  0  0  0  0
  1  5  1  0  0  0  0
  2  8  1  0  0  0  0
  3  1  1  0  0  0  0
  4  1  1  0  0  0  0
  6  2  1  0  0  0  0
  6 10  1  0  0  0  0
  7  2  1  0  0  0  0
  9  6  1  0  0  0  0
  9 12  1  0  0  0  0
 11  6  1  0  0  0  0
 13  9  1  0  0  0  0
 14  9  1  0  0  0  0
M  END
$$$$
