butane_opt
 OpenBabel08242015413D

 14 13  0  0  0  0  0  0  0  0999 V2000
   -3.9298    0.2363    0.0349 C   0  0  0  0  0  0  0  0  0  0  0  0
   -2.7025   -0.5743    0.0373 C   0  0  0  0  0  0  0  0  0  0  0  0
   -4.8807   -0.3982    0.0307 H   0  0  0  0  0  0  0  0  0  0  0  0
   -3.8800    0.7999   -0.8691 H   0  0  0  0  0  0  0  0  0  0  0  0
   -3.9450    0.9989    0.9242 H   0  0  0  0  0  0  0  0  0  0  0  0
   -1.4146    0.1957   -0.0259 C   0  0  0  0  0  0  0  0  0  0  0  0
   -2.8120   -1.2595   -0.8488 H   0  0  0  0  0  0  0  0  0  0  0  0
   -2.6321   -1.1818    0.9530 H   0  0  0  0  0  0  0  0  0  0  0  0
   -0.1746   -0.7207    0.0574 C   0  0  0  0  0  0  0  0  0  0  0  0
   -1.3879    0.8360    0.8003 H   0  0  0  0  0  0  0  0  0  0  0  0
   -1.3644    0.8823   -0.9684 H   0  0  0  0  0  0  0  0  0  0  0  0
   -0.1513   -1.2114    0.8627 H   0  0  0  0  0  0  0  0  0  0  0  0
    0.7517   -0.1551    0.1309 H   0  0  0  0  0  0  0  0  0  0  0  0
   -0.0467   -1.4398   -0.8242 H   0  0  0  0  0  0  0  0  0  0  0  0
  1  2  1  0  0  0  0
  1  5  1  0  0  0  0
  2  8  1  0  0  0  0
  3  1  1  0  0  0  0
  4  1  1  0  0  0  0
  6  2  1  0  0  0  0
  6  9  1  0  0  0  0
  6 10  1  0  0  0  0
  7  2  1  0  0  0  0
  9 13  1  0  0  0  0
  9 12  1  0  0  0  0
 11  6  1  0  0  0  0
 14  9  1  0  0  0  0
M  END
$$$$
