butane_opt
 OpenBabel08242015413D

 14 13  0  0  0  0  0  0  0  0999 V2000
   -3.9133    0.2394   -0.0258 C   0  0  0  0  0  0  0  0  0  0  0  0
   -2.6945   -0.5981    0.0961 C   0  0  0  0  0  0  0  0  0  0  0  0
   -4.8410   -0.3840    0.0513 H   0  0  0  0  0  0  0  0  0  0  0  0
   -3.8734    0.9995   -1.0013 H   0  0  0  0  0  0  0  0  0  0  0  0
   -4.0691    0.8522    0.7554 H   0  0  0  0  0  0  0  0  0  0  0  0
   -1.4237    0.2036    0.0450 C   0  0  0  0  0  0  0  0  0  0  0  0
   -2.7094   -1.1311   -0.7076 H   0  0  0  0  0  0  0  0  0  0  0  0
   -2.7210   -1.3026    1.0455 H   0  0  0  0  0  0  0  0  0  0  0  0
   -0.1708   -0.7105   -0.0223 C   0  0  0  0  0  0  0  0  0  0  0  0
   -1.3404    0.9213    0.9401 H   0  0  0  0  0  0  0  0  0  0  0  0
   -1.4875    0.7355   -0.7598 H   0  0  0  0  0  0  0  0  0  0  0  0
   -0.1660   -1.1412    0.7735 H   0  0  0  0  0  0  0  0  0  0  0  0
    0.7294   -0.1177    0.1621 H   0  0  0  0  0  0  0  0  0  0  0  0
   -0.0974   -1.5316   -0.9548 H   0  0  0  0  0  0  0  0  0  0  0  0
  1  3  1  0  0  0  0
  1  2  1  0  0  0  0
  1  5  1  0  0  0  0
  2  8  1  0  0  0  0
  4  1  1  0  0  0  0
  6  2  1  0  0  0  0
  6 10  1  0  0  0  0
  7  2  1  0  0  0  0
  9  6  1  0  0  0  0
  9 13  1  0  0  0  0
  9 12  1  0  0  0  0
 11  6  1  0  0  0  0
 14  9  1  0  0  0  0
M  END
$$$$
