14
butane_opt
C  -3.937464   0.242727  -0.016036
C  -2.714363  -0.585797   0.078044
H  -4.844218  -0.339375   0.093433
H  -4.044478   0.997444  -0.969409
H  -3.906732   0.814625   0.802439
C  -1.407507   0.200418   0.040322
H  -2.740522  -1.281116  -0.720705
H  -2.794785  -1.223050   1.000642
C  -0.147125  -0.724660   0.002101
H  -1.351996   0.811714   0.838688
H  -1.381574   0.878955  -0.878289
H  -0.182643  -1.077951   0.757858
H   0.763346  -0.113831   0.211605
H  -0.048576  -1.538310  -0.989387
