butane_opt
 OpenBabel08242015413D

 14 13  0  0  0  0  0  0  0  0999 V2000
   -3.9627    0.2469   -0.0043 C   0  0  0  0  0  0  0  0  0  0  0  0
   -2.7040   -0.5945    0.0761 C   0  0  0  0  0  0  0  0  0  0  0  0
   -4.9318   -0.3523    0.0733 H   0  0  0  0  0  0  0  0  0  0  0  0
   -4.0096    0.9160   -0.9711 H   0  0  0  0  0  0  0  0  0  0  0  0
   -3.9767    0.8262    0.7721 H   0  0  0  0  0  0  0  0  0  0  0  0
   -1.4065    0.2091    0.0168 C   0  0  0  0  0  0  0  0  0  0  0  0
   -2.6880   -1.1878   -0.7048 H   0  0  0  0  0  0  0  0  0  0  0  0
   -2.7205   -1.3064    1.0362 H   0  0  0  0  0  0  0  0  0  0  0  0
   -0.1400   -0.7085   -0.0063 C   0  0  0  0  0  0  0  0  0  0  0  0
   -1.2749    0.8893    0.8589 H   0  0  0  0  0  0  0  0  0  0  0  0
   -1.4311    0.7686   -0.7830 H   0  0  0  0  0  0  0  0  0  0  0  0
   -0.1873   -1.1747    0.7978 H   0  0  0  0  0  0  0  0  0  0  0  0
    0.7523   -0.1347    0.3151 H   0  0  0  0  0  0  0  0  0  0  0  0
    0.0197   -1.5692   -0.9622 H   0  0  0  0  0  0  0  0  0  0  0  0
  1  3  1  0  0  0  0
  1  2  1  0  0  0  0
  1  5  1  0  0  0  0
  2  8  1  0  0  0  0
  4  1  1  0  0  0  0
  6  2  1  0  0  0  0
  6 10  1  0  0  0  0
  7  2  1  0  0  0  0
  9  6  1  0  0  0  0
  9 13  1  0  0  0  0
  9 12  1  0  0  0  0
 11  6  1  0  0  0  0
 14  9  1  0  0  0  0
M  END
$$$$
