butane_opt
 OpenBabel08242015413D

 14 13  0  0  0  0  0  0  0  0999 V2000
   -3.9441    0.2517    0.0605 C   0  0  0  0  0  0  0  0  0  0  0  0
   -2.6899   -0.5902   -0.0193 C   0  0  0  0  0  0  0  0  0  0  0  0
   -4.8592   -0.4100   -0.0195 H   0  0  0  0  0  0  0  0  0  0  0  0
   -3.9276    0.8216   -0.8011 H   0  0  0  0  0  0  0  0  0  0  0  0
   -3.8760    0.9519    0.9444 H   0  0  0  0  0  0  0  0  0  0  0  0
   -1.4253    0.1841   -0.0133 C   0  0  0  0  0  0  0  0  0  0  0  0
   -2.7856   -1.3359   -0.8990 H   0  0  0  0  0  0  0  0  0  0  0  0
   -2.6730   -1.1646    0.8654 H   0  0  0  0  0  0  0  0  0  0  0  0
   -0.1551   -0.6949    0.0594 C   0  0  0  0  0  0  0  0  0  0  0  0
   -1.4882    0.9672    0.8835 H   0  0  0  0  0  0  0  0  0  0  0  0
   -1.3517    0.7801   -0.8631 H   0  0  0  0  0  0  0  0  0  0  0  0
   -0.0799   -1.6269    1.1623 H   0  0  0  0  0  0  0  0  0  0  0  0
    0.7491   -0.1101   -0.2087 H   0  0  0  0  0  0  0  0  0  0  0  0
   -0.1630   -1.1526   -0.6591 H   0  0  0  0  0  0  0  0  0  0  0  0
  1  5  1  0  0  0  0
  2  6  1  0  0  0  0
  2  1  1  0  0  0  0
  2  8  1  0  0  0  0
  3  1  1  0  0  0  0
  4  1  1  0  0  0  0
  6  9  1  0  0  0  0
  6 10  1  0  0  0  0
  7  2  1  0  0  0  0
  9 12  1  0  0  0  0
 11  6  1  0  0  0  0
 13  9  1  0  0  0  0
 14  9  1  0  0  0  0
M  END
$$$$
