butane_opt
 OpenBabel08242015413D

 14 13  0  0  0  0  0  0  0  0999 V2000
   -3.9445    0.2504    0.0074 C   0  0  0  0  0  0  0  0  0  0  0  0
   -2.6972   -0.5973    0.0496 C   0  0  0  0  0  0  0  0  0  0  0  0
   -4.8290   -0.3085    0.1912 H   0  0  0  0  0  0  0  0  0  0  0  0
   -4.0814    1.0651   -1.0384 H   0  0  0  0  0  0  0  0  0  0  0  0
   -3.8560    0.7910    0.8143 H   0  0  0  0  0  0  0  0  0  0  0  0
   -1.4108    0.1675    0.0275 C   0  0  0  0  0  0  0  0  0  0  0  0
   -2.7027   -1.3431   -0.8398 H   0  0  0  0  0  0  0  0  0  0  0  0
   -2.6561   -1.1963    0.8524 H   0  0  0  0  0  0  0  0  0  0  0  0
   -0.1632   -0.6916    0.0184 C   0  0  0  0  0  0  0  0  0  0  0  0
   -1.3705    0.9119    0.9416 H   0  0  0  0  0  0  0  0  0  0  0  0
   -1.4522    0.8250   -0.8771 H   0  0  0  0  0  0  0  0  0  0  0  0
   -0.2051   -1.2720    0.9174 H   0  0  0  0  0  0  0  0  0  0  0  0
    0.8329   -0.0480    0.0839 H   0  0  0  0  0  0  0  0  0  0  0  0
   -0.1196   -1.4286   -0.8664 H   0  0  0  0  0  0  0  0  0  0  0  0
  1  2  1  0  0  0  0
  1  3  1  0  0  0  0
  1  5  1  0  0  0  0
  2  8  1  0  0  0  0
  4  1  1  0  0  0  0
  6  2  1  0  0  0  0
  6 10  1  0  0  0  0
  7  2  1  0  0  0  0
  9  6  1  0  0  0  0
  9 13  1  0  0  0  0
  9 12  1  0  0  0  0
 11  6  1  0  0  0  0
 14  9  1  0  0  0  0
M  END
$$$$
