14
butane_opt
C  -3.933735   0.275888  -0.002361
C  -2.696873  -0.629456   0.061473
H  -4.818070  -0.307698  -0.017961
H  -3.948510   0.879396  -0.900835
H  -3.987782   0.963921   0.874498
C  -1.408896   0.172932   0.028678
H  -2.691590  -1.268024  -0.732736
H  -2.736670  -1.274490   0.969306
C  -0.178579  -0.691074   0.002262
H  -1.350882   0.884739   0.908485
H  -1.379104   0.800959  -0.853583
H  -0.152060  -1.289121   0.916480
H   0.794565  -0.048575   0.044306
H  -0.147671  -1.344684  -0.847577
