butane_opt
 OpenBabel08242015413D

 14 13  0  0  0  0  0  0  0  0999 V2000
   -3.9548    0.2578   -0.0068 C   0  0  0  0  0  0  0  0  0  0  0  0
   -2.7042   -0.6083    0.0669 C   0  0  0  0  0  0  0  0  0  0  0  0
   -4.9143   -0.3667    0.0401 H   0  0  0  0  0  0  0  0  0  0  0  0
   -3.9650    0.8832   -0.9384 H   0  0  0  0  0  0  0  0  0  0  0  0
   -3.9599    0.8788    0.8231 H   0  0  0  0  0  0  0  0  0  0  0  0
   -1.3973    0.2017    0.0251 C   0  0  0  0  0  0  0  0  0  0  0  0
   -2.7007   -1.2394   -0.7604 H   0  0  0  0  0  0  0  0  0  0  0  0
   -2.7308   -1.2562    0.9874 H   0  0  0  0  0  0  0  0  0  0  0  0
   -0.1478   -0.7106    0.0114 C   0  0  0  0  0  0  0  0  0  0  0  0
   -1.3581    0.9120    0.9218 H   0  0  0  0  0  0  0  0  0  0  0  0
   -1.4737    0.7831   -0.8121 H   0  0  0  0  0  0  0  0  0  0  0  0
   -0.1163   -1.2391    0.8490 H   0  0  0  0  0  0  0  0  0  0  0  0
    0.7379   -0.1226    0.0298 H   0  0  0  0  0  0  0  0  0  0  0  0
   -0.0851   -1.4023   -0.8680 H   0  0  0  0  0  0  0  0  0  0  0  0
  1  3  1  0  0  0  0
  1  2  1  0  0  0  0
  1  5  1  0  0  0  0
  2  8  1  0  0  0  0
  4  1  1  0  0  0  0
  6  2  1  0  0  0  0
  6 10  1  0  0  0  0
  7  2  1  0  0  0  0
  9  6  1  0  0  0  0
  9 13  1  0  0  0  0
  9 12  1  0  0  0  0
 11  6  1  0  0  0  0
 14  9  1  0  0  0  0
M  END
$$$$
