14
butane_opt
C  -3.957915   0.284519   0.077279
C  -2.718436  -0.654661  -0.042072
H  -4.823973  -0.282927   0.283223
H  -4.159555   0.997611  -0.819609
H  -3.830804   0.895349   0.933300
C  -1.386016   0.185492  -0.042502
H  -2.682890  -1.448423  -0.959049
H  -2.660405  -1.154930   0.778502
C  -0.152324  -0.682807   0.102812
H  -1.396276   0.784024   0.718528
H  -1.294216   0.882702  -0.992952
H  -0.240508  -1.264882   0.976598
H   0.729289  -0.142173   0.074033
H  -0.083481  -1.322910  -0.708078
