butane_opt
 OpenBabel08242015413D

 14 13  0  0  0  0  0  0  0  0999 V2000
   -3.9545    0.2529   -0.0233 C   0  0  0  0  0  0  0  0  0  0  0  0
   -2.7081   -0.6212    0.0885 C   0  0  0  0  0  0  0  0  0  0  0  0
   -4.8732   -0.3641   -0.2257 H   0  0  0  0  0  0  0  0  0  0  0  0
   -3.8428    0.8087   -0.8824 H   0  0  0  0  0  0  0  0  0  0  0  0
   -4.0419    0.9644    0.8578 H   0  0  0  0  0  0  0  0  0  0  0  0
   -1.4070    0.2249    0.0609 C   0  0  0  0  0  0  0  0  0  0  0  0
   -2.7314   -1.1637   -0.6826 H   0  0  0  0  0  0  0  0  0  0  0  0
   -2.7314   -1.3440    1.0201 H   0  0  0  0  0  0  0  0  0  0  0  0
   -0.1337   -0.7094   -0.0119 C   0  0  0  0  0  0  0  0  0  0  0  0
   -1.3590    0.9232    0.9518 H   0  0  0  0  0  0  0  0  0  0  0  0
   -1.4511    0.7961   -0.8234 H   0  0  0  0  0  0  0  0  0  0  0  0
   -0.0022   -1.3294    0.8451 H   0  0  0  0  0  0  0  0  0  0  0  0
    0.6407   -0.2036   -0.1245 H   0  0  0  0  0  0  0  0  0  0  0  0
   -0.1825   -1.3414   -0.8659 H   0  0  0  0  0  0  0  0  0  0  0  0
  1  2  1  0  0  0  0
  1  5  1  0  0  0  0
  2  8  1  0  0  0  0
  3  1  1  0  0  0  0
  4  1  1  0  0  0  0
  6  2  1  0  0  0  0
  6 10  1  0  0  0  0
  7  2  1  0  0  0  0
  9  6  1  0  0  0  0
  9 12  1  0  0  0  0
 11  6  1  0  0  0  0
 13  9  1  0  0  0  0
 14  9  1  0  0  0  0
M  END
$$$$
