14
butane_opt
C  -3.938311   0.269553  -0.017438
C  -2.696445  -0.613325   0.094494
H  -4.838245  -0.291857  -0.233699
H  -3.827513   0.791498  -0.904875
H  -4.003672   0.978513   0.878010
C  -1.397348   0.159662   0.038120
H  -2.747775  -1.192635  -0.691561
H  -2.663258  -1.303721   1.084573
C  -0.172413  -0.692510  -0.010450
H  -1.408153   0.950774   0.967628
H  -1.489636   0.809661  -0.867378
H  -0.193796  -1.274628   0.839231
H   0.809487  -0.057555  -0.001437
H  -0.215866  -1.363777  -0.897835
