butane_opt
 OpenBabel08242015413D

 14 13  0  0  0  0  0  0  0  0999 V2000
   -3.9290    0.2538    0.0575 C   0  0  0  0  0  0  0  0  0  0  0  0
   -2.6962   -0.5970    0.0171 C   0  0  0  0  0  0  0  0  0  0  0  0
   -4.8780   -0.3686   -0.2124 H   0  0  0  0  0  0  0  0  0  0  0  0
   -3.9244    0.6148   -0.6790 H   0  0  0  0  0  0  0  0  0  0  0  0
   -3.9236    1.1573    1.0944 H   0  0  0  0  0  0  0  0  0  0  0  0
   -1.4091    0.2130   -0.0586 C   0  0  0  0  0  0  0  0  0  0  0  0
   -2.6887   -1.3150   -0.8085 H   0  0  0  0  0  0  0  0  0  0  0  0
   -2.7707   -1.2714    0.9280 H   0  0  0  0  0  0  0  0  0  0  0  0
   -0.1868   -0.7171    0.0806 C   0  0  0  0  0  0  0  0  0  0  0  0
   -1.3789    0.8569    0.7420 H   0  0  0  0  0  0  0  0  0  0  0  0
   -1.3297    0.8741   -1.0048 H   0  0  0  0  0  0  0  0  0  0  0  0
   -0.1288   -1.4449    1.0208 H   0  0  0  0  0  0  0  0  0  0  0  0
    0.7319   -0.0695    0.0059 H   0  0  0  0  0  0  0  0  0  0  0  0
   -0.0786   -1.3430   -0.7754 H   0  0  0  0  0  0  0  0  0  0  0  0
  1  5  1  0  0  0  0
  2  1  1  0  0  0  0
  2  8  1  0  0  0  0
  3  1  1  0  0  0  0
  4  1  1  0  0  0  0
  6  2  1  0  0  0  0
  6  9  1  0  0  0  0
  6 10  1  0  0  0  0
  7  2  1  0  0  0  0
  9 12  1  0  0  0  0
 11  6  1  0  0  0  0
 13  9  1  0  0  0  0
 14  9  1  0  0  0  0
M  END
$$$$
