14
butane_opt
C  -3.924312   0.271272   0.028202
C  -2.687156  -0.630555   0.018929
H  -4.763467  -0.257221   0.008286
H  -4.063663   0.806468  -0.826158
H  -4.030525   1.005693   0.883924
C  -1.411212   0.160293   0.028265
H  -2.620861  -1.364295  -0.852239
H  -2.665210  -1.181338   0.818277
C  -0.181296  -0.680156   0.029885
H  -1.425111   0.798508   0.871433
H  -1.364845   0.877213  -0.898491
H  -0.115196  -1.448643   1.058507
H   0.759149  -0.046317  -0.131098
H  -0.285376  -1.106687  -0.724358
