14
butane_opt
C  -3.932349   0.241167   0.063614
C  -2.720231  -0.581308   0.006232
H  -4.865549  -0.374086  -0.042207
H  -3.902377   0.762073  -0.787594
H  -3.966751   1.028914   0.964550
C  -1.406833   0.201705  -0.029701
H  -2.767468  -1.389702  -0.971101
H  -2.657607  -1.122454   0.821801
C  -0.144867  -0.728625   0.076184
H  -1.488839   0.855067   0.833772
H  -1.346324   0.904045  -0.982711
H  -0.148089  -1.438007   1.067812
H   0.768793  -0.108852  -0.164172
H  -0.179423  -1.192837  -0.680076
