14
butane_opt
C  -3.938780   0.274950   0.004486
C  -2.696810  -0.621975   0.082085
H  -4.868718  -0.326291  -0.131064
H  -3.990373   0.826337  -0.851865
H  -4.038546   0.988704   0.897421
C  -1.386864   0.167961  -0.004895
H  -2.696268  -1.248001  -0.746811
H  -2.800745  -1.230286   1.013041
C  -0.163956  -0.696767   0.010105
H  -1.353704   0.902328   0.865412
H  -1.439047   0.761315  -0.864328
H  -0.227099  -1.189315   0.893679
H   0.752853  -0.085056   0.107301
H  -0.113352  -1.377183  -0.846888
