14
butane_opt
C  -3.955831   0.276296   0.047283
C  -2.689488  -0.634822  -0.005629
H  -4.836428  -0.252668  -0.082000
H  -3.967090   0.749102  -0.732395
H  -4.020425   1.090620   1.026566
C  -1.384641   0.176904  -0.014194
H  -2.760319  -1.328816  -0.873067
H  -2.702571  -1.295582   0.921168
C  -0.171055  -0.680346   0.063152
H  -1.448499   0.844318   0.825038
H  -1.259055   0.848655  -0.897373
H  -0.140371  -1.472918   1.075467
H   0.721812  -0.127381  -0.181340
H  -0.197641  -1.182684  -0.713669
