butane_opt
 OpenBabel08242015413D

 14 13  0  0  0  0  0  0  0  0999 V2000
   -3.9495    0.2751    0.0647 C   0  0  0  0  0  0  0  0  0  0  0  0
   -2.7110   -0.6533    0.0214 C   0  0  0  0  0  0  0  0  0  0  0  0
   -4.8423   -0.3204   -0.3005 H   0  0  0  0  0  0  0  0  0  0  0  0
   -3.9459    0.7349   -0.7254 H   0  0  0  0  0  0  0  0  0  0  0  0
   -4.1413    1.1515    1.0903 H   0  0  0  0  0  0  0  0  0  0  0  0
   -1.4008    0.1983   -0.0498 C   0  0  0  0  0  0  0  0  0  0  0  0
   -2.7068   -1.2884   -0.8150 H   0  0  0  0  0  0  0  0  0  0  0  0
   -2.6889   -1.2728    0.9350 H   0  0  0  0  0  0  0  0  0  0  0  0
   -0.1448   -0.6894    0.0597 C   0  0  0  0  0  0  0  0  0  0  0  0
   -1.4106    0.8576    0.7670 H   0  0  0  0  0  0  0  0  0  0  0  0
   -1.3622    0.8374   -0.9512 H   0  0  0  0  0  0  0  0  0  0  0  0
   -0.1548   -1.3814    1.0343 H   0  0  0  0  0  0  0  0  0  0  0  0
    0.7842   -0.1065    0.0034 H   0  0  0  0  0  0  0  0  0  0  0  0
   -0.0747   -1.2583   -0.7299 H   0  0  0  0  0  0  0  0  0  0  0  0
  1  5  1  0  0  0  0
  2  1  1  0  0  0  0
  2  8  1  0  0  0  0
  3  1  1  0  0  0  0
  4  1  1  0  0  0  0
  6  2  1  0  0  0  0
  6  9  1  0  0  0  0
  6 10  1  0  0  0  0
  7  2  1  0  0  0  0
  9 12  1  0  0  0  0
 11  6  1  0  0  0  0
 13  9  1  0  0  0  0
 14  9  1  0  0  0  0
M  END
$$$$
