butane_opt
 OpenBabel08242015413D

 14 13  0  0  0  0  0  0  0  0999 V2000
   -3.9799    0.2813   -0.0092 C   0  0  0  0  0  0  0  0  0  0  0  0
   -2.6911   -0.6624    0.0532 C   0  0  0  0  0  0  0  0  0  0  0  0
   -4.8377   -0.2569    0.2565 H   0  0  0  0  0  0  0  0  0  0  0  0
   -4.0311    1.0988   -1.0236 H   0  0  0  0  0  0  0  0  0  0  0  0
   -3.9619    0.8188    0.8068 H   0  0  0  0  0  0  0  0  0  0  0  0
   -1.3846    0.1834    0.0365 C   0  0  0  0  0  0  0  0  0  0  0  0
   -2.6686   -1.2771   -0.7931 H   0  0  0  0  0  0  0  0  0  0  0  0
   -2.6253   -1.2840    0.9410 H   0  0  0  0  0  0  0  0  0  0  0  0
   -0.1656   -0.6807   -0.0022 C   0  0  0  0  0  0  0  0  0  0  0  0
   -1.2896    0.9069    0.9395 H   0  0  0  0  0  0  0  0  0  0  0  0
   -1.3688    0.7379   -0.7967 H   0  0  0  0  0  0  0  0  0  0  0  0
   -0.2319   -1.2143    0.8468 H   0  0  0  0  0  0  0  0  0  0  0  0
    0.7182   -0.0477    0.1720 H   0  0  0  0  0  0  0  0  0  0  0  0
   -0.0739   -1.4070   -0.8694 H   0  0  0  0  0  0  0  0  0  0  0  0
  1  2  1  0  0  0  0
  1  3  1  0  0  0  0
  1  5  1  0  0  0  0
  2  8  1  0  0  0  0
  4  1  1  0  0  0  0
  6  2  1  0  0  0  0
  6 10  1  0  0  0  0
  7  2  1  0  0  0  0
  9  6  1  0  0  0  0
  9 13  1  0  0  0  0
  9 12  1  0  0  0  0
 11  6  1  0  0  0  0
 14  9  1  0  0  0  0
M  END
$$$$
