14
butane_opt
C  -3.959419   0.250771   0.050270
C  -2.703167  -0.608988   0.013424
H  -4.891983  -0.301655   0.201878
H  -4.009268   0.897618  -0.887245
H  -3.910461   0.893144   0.895097
C  -1.392217   0.202093  -0.042748
H  -2.797979  -1.303459  -0.859499
H  -2.699636  -1.269057   0.855455
C  -0.142135  -0.710115   0.063914
H  -1.513932   0.951750   0.843143
H  -1.370680   0.840861  -0.949036
H  -0.202372  -1.237573   0.909145
H   0.758362  -0.130419   0.215477
H  -0.021462  -1.419777  -0.811820
