14
butane_opt
C  -3.949520   0.275056   0.064689
C  -2.711040  -0.653275   0.021376
H  -4.842309  -0.320378  -0.300549
H  -3.945898   0.734889  -0.725376
H  -4.141302   1.151528   1.090313
C  -1.400830   0.198342  -0.049753
H  -2.706763  -1.288405  -0.815007
H  -2.688919  -1.272791   0.934978
C  -0.144778  -0.689395   0.059672
H  -1.410563   0.857597   0.767042
H  -1.362152   0.837442  -0.951166
H  -0.154811  -1.381361   1.034281
H   0.784186  -0.106507   0.003385
H  -0.074661  -1.258266  -0.729909
