butane_opt
 OpenBabel08242015413D

 14 13  0  0  0  0  0  0  0  0999 V2000
   -3.9472    0.2528    0.0535 C   0  0  0  0  0  0  0  0  0  0  0  0
   -2.7157   -0.5967    0.0201 C   0  0  0  0  0  0  0  0  0  0  0  0
   -4.9275   -0.3630   -0.0903 H   0  0  0  0  0  0  0  0  0  0  0  0
   -3.9200    0.7148   -0.7557 H   0  0  0  0  0  0  0  0  0  0  0  0
   -4.0469    1.0497    0.9993 H   0  0  0  0  0  0  0  0  0  0  0  0
   -1.3946    0.1963   -0.0416 C   0  0  0  0  0  0  0  0  0  0  0  0
   -2.8975   -1.3257   -0.8960 H   0  0  0  0  0  0  0  0  0  0  0  0
   -2.6648   -1.1338    0.8445 H   0  0  0  0  0  0  0  0  0  0  0  0
   -0.1340   -0.7182    0.0732 C   0  0  0  0  0  0  0  0  0  0  0  0
   -1.4284    0.8300    0.7813 H   0  0  0  0  0  0  0  0  0  0  0  0
   -1.3660    0.9244   -0.9499 H   0  0  0  0  0  0  0  0  0  0  0  0
   -0.1153   -1.3660    1.0069 H   0  0  0  0  0  0  0  0  0  0  0  0
    0.7502   -0.1404   -0.0541 H   0  0  0  0  0  0  0  0  0  0  0  0
   -0.0909   -1.2918   -0.6994 H   0  0  0  0  0  0  0  0  0  0  0  0
  1  5  1  0  0  0  0
  2  1  1  0  0  0  0
  2  8  1  0  0  0  0
  3  1  1  0  0  0  0
  4  1  1  0  0  0  0
  6  2  1  0  0  0  0
  6  9  1  0  0  0  0
  6 10  1  0  0  0  0
  7  2  1  0  0  0  0
  9 12  1  0  0  0  0
 11  6  1  0  0  0  0
 13  9  1  0  0  0  0
 14  9  1  0  0  0  0
M  END
$$$$
