butane_opt
 OpenBabel08242015413D

 14 13  0  0  0  0  0  0  0  0999 V2000
   -3.9402    0.2684    0.0455 C   0  0  0  0  0  0  0  0  0  0  0  0
   -2.6907   -0.6195    0.0014 C   0  0  0  0  0  0  0  0  0  0  0  0
   -4.8638   -0.3361    0.2028 H   0  0  0  0  0  0  0  0  0  0  0  0
   -3.9818    0.9612   -0.8748 H   0  0  0  0  0  0  0  0  0  0  0  0
   -3.8960    0.8869    0.8919 H   0  0  0  0  0  0  0  0  0  0  0  0
   -1.4115    0.1815   -0.0196 C   0  0  0  0  0  0  0  0  0  0  0  0
   -2.7408   -1.3874   -0.9101 H   0  0  0  0  0  0  0  0  0  0  0  0
   -2.6321   -1.2178    0.8391 H   0  0  0  0  0  0  0  0  0  0  0  0
   -0.1733   -0.6855    0.0635 C   0  0  0  0  0  0  0  0  0  0  0  0
   -1.4356    0.8775    0.8456 H   0  0  0  0  0  0  0  0  0  0  0  0
   -1.3253    0.8042   -0.9034 H   0  0  0  0  0  0  0  0  0  0  0  0
   -0.1767   -1.3515    0.9954 H   0  0  0  0  0  0  0  0  0  0  0  0
    0.7512   -0.0995    0.0337 H   0  0  0  0  0  0  0  0  0  0  0  0
   -0.1386   -1.3400   -0.7757 H   0  0  0  0  0  0  0  0  0  0  0  0
  1  3  1  0  0  0  0
  1  5  1  0  0  0  0
  2  1  1  0  0  0  0
  2  8  1  0  0  0  0
  4  1  1  0  0  0  0
  6  2  1  0  0  0  0
  6  9  1  0  0  0  0
  6 10  1  0  0  0  0
  7  2  1  0  0  0  0
  9 12  1  0  0  0  0
 11  6  1  0  0  0  0
 13  9  1  0  0  0  0
 14  9  1  0  0  0  0
M  END
$$$$
