butane_opt
 OpenBabel08242015413D

 14 13  0  0  0  0  0  0  0  0999 V2000
   -3.9594    0.2508    0.0503 C   0  0  0  0  0  0  0  0  0  0  0  0
   -2.7032   -0.6090    0.0134 C   0  0  0  0  0  0  0  0  0  0  0  0
   -4.8920   -0.3017    0.2019 H   0  0  0  0  0  0  0  0  0  0  0  0
   -4.0093    0.8976   -0.8872 H   0  0  0  0  0  0  0  0  0  0  0  0
   -3.9105    0.8931    0.8951 H   0  0  0  0  0  0  0  0  0  0  0  0
   -1.3922    0.2021   -0.0427 C   0  0  0  0  0  0  0  0  0  0  0  0
   -2.7980   -1.3035   -0.8595 H   0  0  0  0  0  0  0  0  0  0  0  0
   -2.6996   -1.2691    0.8555 H   0  0  0  0  0  0  0  0  0  0  0  0
   -0.1421   -0.7101    0.0639 C   0  0  0  0  0  0  0  0  0  0  0  0
   -1.5139    0.9517    0.8431 H   0  0  0  0  0  0  0  0  0  0  0  0
   -1.3707    0.8409   -0.9490 H   0  0  0  0  0  0  0  0  0  0  0  0
   -0.2024   -1.2376    0.9091 H   0  0  0  0  0  0  0  0  0  0  0  0
    0.7584   -0.1304    0.2155 H   0  0  0  0  0  0  0  0  0  0  0  0
   -0.0215   -1.4198   -0.8118 H   0  0  0  0  0  0  0  0  0  0  0  0
  1  3  1  0  0  0  0
  1  5  1  0  0  0  0
  2  1  1  0  0  0  0
  2  8  1  0  0  0  0
  4  1  1  0  0  0  0
  6  2  1  0  0  0  0
  6  9  1  0  0  0  0
  6 10  1  0  0  0  0
  7  2  1  0  0  0  0
  9 13  1  0  0  0  0
  9 12  1  0  0  0  0
 11  6  1  0  0  0  0
 14  9  1  0  0  0  0
M  END
$$$$
