14
butane_opt
C  -3.923000   0.263997  -0.024912
C  -2.702405  -0.606808   0.102072
H  -4.880588  -0.397875   0.039033
H  -3.885953   1.002307  -1.005559
H  -4.002047   0.801377   0.698545
C  -1.423093   0.188034   0.053498
H  -2.779655  -1.276437  -0.703854
H  -2.720559  -1.246406   1.000602
C  -0.145599  -0.703858  -0.017559
H  -1.400026   0.871328   0.914506
H  -1.476149   0.811383  -0.802433
H  -0.207612  -1.081374   0.731033
H   0.790537  -0.133715   0.114882
H  -0.125023  -1.521800  -0.945512
