butane_opt
 OpenBabel08242015413D

 14 13  0  0  0  0  0  0  0  0999 V2000
   -3.9366    0.2583    0.0429 C   0  0  0  0  0  0  0  0  0  0  0  0
   -2.6982   -0.5922    0.0185 C   0  0  0  0  0  0  0  0  0  0  0  0
   -4.8727   -0.3518   -0.0876 H   0  0  0  0  0  0  0  0  0  0  0  0
   -3.8522    0.7317   -0.7750 H   0  0  0  0  0  0  0  0  0  0  0  0
   -3.9895    0.9887    0.9265 H   0  0  0  0  0  0  0  0  0  0  0  0
   -1.3925    0.1807   -0.0141 C   0  0  0  0  0  0  0  0  0  0  0  0
   -2.7730   -1.3337   -0.8866 H   0  0  0  0  0  0  0  0  0  0  0  0
   -2.6461   -1.1585    0.8876 H   0  0  0  0  0  0  0  0  0  0  0  0
   -0.1735   -0.7019    0.0601 C   0  0  0  0  0  0  0  0  0  0  0  0
   -1.4143    0.8736    0.8669 H   0  0  0  0  0  0  0  0  0  0  0  0
   -1.4101    0.8517   -0.9241 H   0  0  0  0  0  0  0  0  0  0  0  0
   -0.1143   -1.4344    1.0909 H   0  0  0  0  0  0  0  0  0  0  0  0
    0.6943   -0.1406   -0.1846 H   0  0  0  0  0  0  0  0  0  0  0  0
   -0.2286   -1.2525   -0.7488 H   0  0  0  0  0  0  0  0  0  0  0  0
  1  5  1  0  0  0  0
  2  1  1  0  0  0  0
  2  8  1  0  0  0  0
  3  1  1  0  0  0  0
  4  1  1  0  0  0  0
  6  2  1  0  0  0  0
  6  9  1  0  0  0  0
  6 10  1  0  0  0  0
  7  2  1  0  0  0  0
  9 12  1  0  0  0  0
 11  6  1  0  0  0  0
 13  9  1  0  0  0  0
 14  9  1  0  0  0  0
M  END
$$$$
