butane_opt
 OpenBabel08242015413D

 14 13  0  0  0  0  0  0  0  0999 V2000
   -3.9457    0.2513   -0.0251 C   0  0  0  0  0  0  0  0  0  0  0  0
   -2.7017   -0.6063    0.0714 C   0  0  0  0  0  0  0  0  0  0  0  0
   -4.8492   -0.3476    0.0361 H   0  0  0  0  0  0  0  0  0  0  0  0
   -3.9754    0.8775   -0.9575 H   0  0  0  0  0  0  0  0  0  0  0  0
   -3.9670    0.9002    0.8343 H   0  0  0  0  0  0  0  0  0  0  0  0
   -1.4085    0.2095    0.0615 C   0  0  0  0  0  0  0  0  0  0  0  0
   -2.7080   -1.2753   -0.7704 H   0  0  0  0  0  0  0  0  0  0  0  0
   -2.8013   -1.2786    0.9973 H   0  0  0  0  0  0  0  0  0  0  0  0
   -0.1419   -0.7097   -0.0071 C   0  0  0  0  0  0  0  0  0  0  0  0
   -1.3959    0.9674    0.9451 H   0  0  0  0  0  0  0  0  0  0  0  0
   -1.4047    0.7904   -0.8063 H   0  0  0  0  0  0  0  0  0  0  0  0
   -0.0325   -1.3604    0.9063 H   0  0  0  0  0  0  0  0  0  0  0  0
    0.7300   -0.1630   -0.1004 H   0  0  0  0  0  0  0  0  0  0  0  0
   -0.2314   -1.3214   -0.8471 H   0  0  0  0  0  0  0  0  0  0  0  0
  1  3  1  0  0  0  0
  1  2  1  0  0  0  0
  1  5  1  0  0  0  0
  2  8  1  0  0  0  0
  4  1  1  0  0  0  0
  6  2  1  0  0  0  0
  6 10  1  0  0  0  0
  7  2  1  0  0  0  0
  9  6  1  0  0  0  0
  9 12  1  0  0  0  0
 11  6  1  0  0  0  0
 13  9  1  0  0  0  0
 14  9  1  0  0  0  0
M  END
$$$$
