butane_opt
 OpenBabel08242015413D

 14 13  0  0  0  0  0  0  0  0999 V2000
   -3.9879    0.2899    0.0253 C   0  0  0  0  0  0  0  0  0  0  0  0
   -2.6739   -0.6365    0.0474 C   0  0  0  0  0  0  0  0  0  0  0  0
   -4.8622   -0.2859    0.0467 H   0  0  0  0  0  0  0  0  0  0  0  0
   -4.0299    0.8769   -0.8242 H   0  0  0  0  0  0  0  0  0  0  0  0
   -3.9906    0.9048    0.8530 H   0  0  0  0  0  0  0  0  0  0  0  0
   -1.3879    0.1586   -0.0146 C   0  0  0  0  0  0  0  0  0  0  0  0
   -2.7426   -1.3528   -0.8138 H   0  0  0  0  0  0  0  0  0  0  0  0
   -2.6857   -1.2647    0.9232 H   0  0  0  0  0  0  0  0  0  0  0  0
   -0.1590   -0.6746    0.0437 C   0  0  0  0  0  0  0  0  0  0  0  0
   -1.4172    0.8336    0.8130 H   0  0  0  0  0  0  0  0  0  0  0  0
   -1.3143    0.8483   -0.9665 H   0  0  0  0  0  0  0  0  0  0  0  0
   -0.1835   -1.1747    0.8674 H   0  0  0  0  0  0  0  0  0  0  0  0
    0.8294   -0.0491    0.1943 H   0  0  0  0  0  0  0  0  0  0  0  0
   -0.1388   -1.4472   -0.8870 H   0  0  0  0  0  0  0  0  0  0  0  0
  1  3  1  0  0  0  0
  1  2  1  0  0  0  0
  1  5  1  0  0  0  0
  2  8  1  0  0  0  0
  4  1  1  0  0  0  0
  6  9  1  0  0  0  0
  6  2  1  0  0  0  0
  6 10  1  0  0  0  0
  7  2  1  0  0  0  0
  9 13  1  0  0  0  0
  9 12  1  0  0  0  0
 11  6  1  0  0  0  0
 14  9  1  0  0  0  0
M  END
$$$$
