14
butane_opt
C  -3.902874   0.231766   0.051536
C  -2.698047  -0.588167   0.022907
H  -4.831074  -0.382563  -0.192264
H  -3.994639   0.684491  -0.713724
H  -3.994140   1.116766   1.058443
C  -1.428557   0.215501  -0.030516
H  -2.695013  -1.325779  -0.895558
H  -2.709247  -1.156151   0.825771
C  -0.166030  -0.714375   0.074744
H  -1.417821   0.784325   0.710711
H  -1.463988   0.896974  -0.952571
H  -0.101935  -1.484165   1.048654
H   0.708970  -0.109357  -0.107515
H  -0.154143  -1.246869  -0.728645
