butane_opt
 OpenBabel08242015413D

 14 13  0  0  0  0  0  0  0  0999 V2000
   -3.9507    0.2370   -0.0382 C   0  0  0  0  0  0  0  0  0  0  0  0
   -2.7066   -0.5921    0.1035 C   0  0  0  0  0  0  0  0  0  0  0  0
   -4.8317   -0.3854   -0.1555 H   0  0  0  0  0  0  0  0  0  0  0  0
   -3.8611    0.8081   -0.9189 H   0  0  0  0  0  0  0  0  0  0  0  0
   -4.1349    0.9682    0.8399 H   0  0  0  0  0  0  0  0  0  0  0  0
   -1.4051    0.2119    0.0622 C   0  0  0  0  0  0  0  0  0  0  0  0
   -2.6788   -1.1354   -0.6459 H   0  0  0  0  0  0  0  0  0  0  0  0
   -2.8372   -1.3685    1.1076 H   0  0  0  0  0  0  0  0  0  0  0  0
   -0.1326   -0.7061   -0.0232 C   0  0  0  0  0  0  0  0  0  0  0  0
   -1.4318    0.9667    0.9519 H   0  0  0  0  0  0  0  0  0  0  0  0
   -1.4349    0.8357   -0.7610 H   0  0  0  0  0  0  0  0  0  0  0  0
   -0.0022   -1.3333    0.8155 H   0  0  0  0  0  0  0  0  0  0  0  0
    0.7252   -0.1734   -0.0468 H   0  0  0  0  0  0  0  0  0  0  0  0
   -0.1799   -1.4790   -0.9954 H   0  0  0  0  0  0  0  0  0  0  0  0
  1  2  1  0  0  0  0
  1  5  1  0  0  0  0
  2  8  1  0  0  0  0
  3  1  1  0  0  0  0
  4  1  1  0  0  0  0
  6  2  1  0  0  0  0
  6 10  1  0  0  0  0
  7  2  1  0  0  0  0
  9  6  1  0  0  0  0
  9 12  1  0  0  0  0
 11  6  1  0  0  0  0
 13  9  1  0  0  0  0
 14  9  1  0  0  0  0
M  END
$$$$
