butane_opt
 OpenBabel08242015413D

 14 13  0  0  0  0  0  0  0  0999 V2000
   -3.9346    0.2495    0.0679 C   0  0  0  0  0  0  0  0  0  0  0  0
   -2.6878   -0.5872   -0.0079 C   0  0  0  0  0  0  0  0  0  0  0  0
   -4.9314   -0.4165    0.0660 H   0  0  0  0  0  0  0  0  0  0  0  0
   -3.9984    0.7797   -0.7331 H   0  0  0  0  0  0  0  0  0  0  0  0
   -3.8968    0.9791    0.9522 H   0  0  0  0  0  0  0  0  0  0  0  0
   -1.4227    0.1909   -0.0666 C   0  0  0  0  0  0  0  0  0  0  0  0
   -2.8520   -1.3073   -0.9160 H   0  0  0  0  0  0  0  0  0  0  0  0
   -2.6126   -1.1792    0.8990 H   0  0  0  0  0  0  0  0  0  0  0  0
   -0.1586   -0.7034    0.0929 C   0  0  0  0  0  0  0  0  0  0  0  0
   -1.4422    0.8648    0.7822 H   0  0  0  0  0  0  0  0  0  0  0  0
   -1.3897    0.8523   -0.9890 H   0  0  0  0  0  0  0  0  0  0  0  0
   -0.2240   -1.3710    1.0178 H   0  0  0  0  0  0  0  0  0  0  0  0
    0.7690   -0.0902    0.1217 H   0  0  0  0  0  0  0  0  0  0  0  0
    0.0051   -1.3994   -0.7998 H   0  0  0  0  0  0  0  0  0  0  0  0
  1  5  1  0  0  0  0
  2  1  1  0  0  0  0
  2  8  1  0  0  0  0
  3  1  1  0  0  0  0
  4  1  1  0  0  0  0
  6  2  1  0  0  0  0
  6  9  1  0  0  0  0
  6 10  1  0  0  0  0
  7  2  1  0  0  0  0
  9 13  1  0  0  0  0
  9 12  1  0  0  0  0
 11  6  1  0  0  0  0
 14  9  1  0  0  0  0
M  END
$$$$
