14
butane_opt
C  -3.946682   0.255003   0.000105
C  -2.719011  -0.603023   0.038230
H  -4.860916  -0.329113   0.170741
H  -4.027857   0.975244  -0.966159
H  -3.902699   0.824801   0.792958
C  -1.408458   0.192867   0.037608
H  -2.706821  -1.232635  -0.777155
H  -2.775567  -1.250175   0.984076
C  -0.134105  -0.700635   0.015535
H  -1.333187   0.879898   0.907232
H  -1.411096   0.781105  -0.825325
H  -0.150859  -1.270350   0.888855
H   0.759501  -0.112018   0.038762
H  -0.110059  -1.471911  -0.889465
