butane_opt
 OpenBabel08242015413D

 14 13  0  0  0  0  0  0  0  0999 V2000
   -3.9394    0.2734    0.0377 C   0  0  0  0  0  0  0  0  0  0  0  0
   -2.6865   -0.6294    0.0259 C   0  0  0  0  0  0  0  0  0  0  0  0
   -4.8363   -0.3522    0.1115 H   0  0  0  0  0  0  0  0  0  0  0  0
   -3.9587    0.8309   -0.8269 H   0  0  0  0  0  0  0  0  0  0  0  0
   -3.9382    0.9918    0.9166 H   0  0  0  0  0  0  0  0  0  0  0  0
   -1.4062    0.1956   -0.0264 C   0  0  0  0  0  0  0  0  0  0  0  0
   -2.7445   -1.3218   -0.8256 H   0  0  0  0  0  0  0  0  0  0  0  0
   -2.6284   -1.2535    0.8796 H   0  0  0  0  0  0  0  0  0  0  0  0
   -0.1797   -0.6954    0.0665 C   0  0  0  0  0  0  0  0  0  0  0  0
   -1.4092    0.7820    0.7247 H   0  0  0  0  0  0  0  0  0  0  0  0
   -1.2871    0.8706   -0.9913 H   0  0  0  0  0  0  0  0  0  0  0  0
   -0.2097   -1.1541    0.8686 H   0  0  0  0  0  0  0  0  0  0  0  0
    0.7047   -0.1524    0.1835 H   0  0  0  0  0  0  0  0  0  0  0  0
   -0.1628   -1.4482   -0.8475 H   0  0  0  0  0  0  0  0  0  0  0  0
  1  3  1  0  0  0  0
  1  5  1  0  0  0  0
  2  1  1  0  0  0  0
  2  8  1  0  0  0  0
  4  1  1  0  0  0  0
  6  2  1  0  0  0  0
  6  9  1  0  0  0  0
  6 10  1  0  0  0  0
  7  2  1  0  0  0  0
  9 13  1  0  0  0  0
  9 12  1  0  0  0  0
 11  6  1  0  0  0  0
 14  9  1  0  0  0  0
M  END
$$$$
