14
butane_opt
C  -3.947259   0.258451   0.012108
C  -2.707949  -0.620539   0.063736
H  -4.860700  -0.378474  -0.057399
H  -3.901331   0.891065  -0.919194
H  -4.149065   1.011769   0.854476
C  -1.397397   0.201139   0.020910
H  -2.701776  -1.361096  -0.869098
H  -2.695602  -1.198102   0.928505
C  -0.159754  -0.698726   0.024723
H  -1.308260   0.881395   0.912007
H  -1.371809   0.818180  -0.849035
H  -0.006657  -1.389228   0.946083
H   0.719035  -0.128553  -0.145722
H  -0.181789  -1.309662  -0.800926
