14
butane_opt
C  -3.940185   0.291454  -0.014963
C  -2.686944  -0.643989   0.091644
H  -4.873193  -0.328159   0.020401
H  -3.910996   0.867048  -0.890988
H  -4.049691   0.921972   0.791281
C  -1.396770   0.171104   0.039024
H  -2.655696  -1.274715  -0.716443
H  -2.748100  -1.266992   0.921964
C  -0.184591  -0.678668  -0.011037
H  -1.338762   0.826199   0.888862
H  -1.381318   0.836215  -0.881910
H  -0.211671  -1.189638   0.800120
H   0.727957  -0.102928   0.123404
H  -0.088943  -1.440504  -0.874244
