butane_opt
 OpenBabel08242015413D

 14 13  0  0  0  0  0  0  0  0999 V2000
   -3.9683    0.2759    0.0669 C   0  0  0  0  0  0  0  0  0  0  0  0
   -2.7097   -0.6331   -0.0043 C   0  0  0  0  0  0  0  0  0  0  0  0
   -4.8154   -0.2592    0.0900 H   0  0  0  0  0  0  0  0  0  0  0  0
   -4.1392    0.8950   -0.8005 H   0  0  0  0  0  0  0  0  0  0  0  0
   -3.9736    1.0179    0.9481 H   0  0  0  0  0  0  0  0  0  0  0  0
   -1.3728    0.1546   -0.0594 C   0  0  0  0  0  0  0  0  0  0  0  0
   -2.6881   -1.2897   -0.8316 H   0  0  0  0  0  0  0  0  0  0  0  0
   -2.7389   -1.2847    0.9346 H   0  0  0  0  0  0  0  0  0  0  0  0
   -0.1558   -0.6861    0.0772 C   0  0  0  0  0  0  0  0  0  0  0  0
   -1.3935    0.8620    0.7794 H   0  0  0  0  0  0  0  0  0  0  0  0
   -1.3148    0.8700   -0.9982 H   0  0  0  0  0  0  0  0  0  0  0  0
   -0.2744   -1.1758    0.9131 H   0  0  0  0  0  0  0  0  0  0  0  0
    0.8010   -0.0303    0.2610 H   0  0  0  0  0  0  0  0  0  0  0  0
   -0.0081   -1.4170   -0.8280 H   0  0  0  0  0  0  0  0  0  0  0  0
  1  3  1  0  0  0  0
  1  5  1  0  0  0  0
  2  1  1  0  0  0  0
  2  8  1  0  0  0  0
  4  1  1  0  0  0  0
  6  2  1  0  0  0  0
  6  9  1  0  0  0  0
  6 10  1  0  0  0  0
  7  2  1  0  0  0  0
  9 13  1  0  0  0  0
  9 12  1  0  0  0  0
 11  6  1  0  0  0  0
 14  9  1  0  0  0  0
M  END
$$$$
