14
butane_opt
C  -3.953063   0.280247   0.058949
C  -2.692294  -0.643184   0.019960
H  -4.821174  -0.269048  -0.122442
H  -4.004704   0.681880  -0.718003
H  -4.067908   1.181300   1.060611
C  -1.402387   0.170930  -0.054385
H  -2.784400  -1.406712  -0.915151
H  -2.672088  -1.203622   0.896078
C  -0.149593  -0.661454   0.079221
H  -1.380544   0.722418   0.711718
H  -1.385622   0.883330  -1.010837
H  -0.222160  -1.392241   1.023857
H   0.752411  -0.091792   0.036900
H  -0.075081  -1.329723  -0.740934
