butane_opt
 OpenBabel08242015413D

 14 13  0  0  0  0  0  0  0  0999 V2000
   -3.9629    0.2601   -0.0155 C   0  0  0  0  0  0  0  0  0  0  0  0
   -2.7137   -0.6052    0.0689 C   0  0  0  0  0  0  0  0  0  0  0  0
   -4.8912   -0.3582   -0.0689 H   0  0  0  0  0  0  0  0  0  0  0  0
   -3.8454    0.9054   -0.9617 H   0  0  0  0  0  0  0  0  0  0  0  0
   -3.9546    0.9540    0.8649 H   0  0  0  0  0  0  0  0  0  0  0  0
   -1.4066    0.1938    0.0429 C   0  0  0  0  0  0  0  0  0  0  0  0
   -2.7305   -1.2504   -0.7775 H   0  0  0  0  0  0  0  0  0  0  0  0
   -2.7146   -1.3135    1.0416 H   0  0  0  0  0  0  0  0  0  0  0  0
   -0.1457   -0.7007   -0.0018 C   0  0  0  0  0  0  0  0  0  0  0  0
   -1.2662    0.9523    0.9918 H   0  0  0  0  0  0  0  0  0  0  0  0
   -1.4035    0.7305   -0.7578 H   0  0  0  0  0  0  0  0  0  0  0  0
   -0.0402   -1.3905    0.9297 H   0  0  0  0  0  0  0  0  0  0  0  0
    0.7737   -0.1076   -0.1432 H   0  0  0  0  0  0  0  0  0  0  0  0
   -0.2054   -1.3629   -0.8135 H   0  0  0  0  0  0  0  0  0  0  0  0
  1  2  1  0  0  0  0
  1  5  1  0  0  0  0
  2  8  1  0  0  0  0
  3  1  1  0  0  0  0
  4  1  1  0  0  0  0
  6  2  1  0  0  0  0
  6 10  1  0  0  0  0
  7  2  1  0  0  0  0
  9  6  1  0  0  0  0
  9 12  1  0  0  0  0
 11  6  1  0  0  0  0
 13  9  1  0  0  0  0
 14  9  1  0  0  0  0
M  END
$$$$
