14
butane_opt
C  -3.962419   0.279416  -0.030605
C  -2.718289  -0.641618   0.095741
H  -4.814496  -0.282247  -0.083014
H  -3.964718   0.988877  -1.011174
H  -4.025947   0.929029   0.761264
C  -1.391951   0.173621   0.064148
H  -2.691164  -1.263329  -0.742047
H  -2.688456  -1.329296   1.043245
C  -0.141025  -0.678856  -0.019130
H  -1.266492   0.997126   1.016068
H  -1.471466   0.676421  -0.754927
H  -0.104674  -1.339272   0.891555
H   0.837463  -0.044405  -0.119970
H  -0.276894  -1.381727  -0.891664
