butane_opt
 OpenBabel08242015413D

 14 13  0  0  0  0  0  0  0  0999 V2000
   -3.9728    0.2610   -0.0139 C   0  0  0  0  0  0  0  0  0  0  0  0
   -2.6997   -0.6163    0.0519 C   0  0  0  0  0  0  0  0  0  0  0  0
   -4.9071   -0.3651    0.0067 H   0  0  0  0  0  0  0  0  0  0  0  0
   -3.9503    0.8968   -0.9225 H   0  0  0  0  0  0  0  0  0  0  0  0
   -4.0090    0.8553    0.8255 H   0  0  0  0  0  0  0  0  0  0  0  0
   -1.3921    0.1953    0.0711 C   0  0  0  0  0  0  0  0  0  0  0  0
   -2.7260   -1.2626   -0.8229 H   0  0  0  0  0  0  0  0  0  0  0  0
   -2.6843   -1.2538    0.9540 H   0  0  0  0  0  0  0  0  0  0  0  0
   -0.1324   -0.7039    0.0077 C   0  0  0  0  0  0  0  0  0  0  0  0
   -1.3957    0.9339    0.9616 H   0  0  0  0  0  0  0  0  0  0  0  0
   -1.4152    0.8873   -0.8477 H   0  0  0  0  0  0  0  0  0  0  0  0
   -0.0273   -1.3551    0.9509 H   0  0  0  0  0  0  0  0  0  0  0  0
    0.7211   -0.1449   -0.2363 H   0  0  0  0  0  0  0  0  0  0  0  0
   -0.2504   -1.3149   -0.8390 H   0  0  0  0  0  0  0  0  0  0  0  0
  1  3  1  0  0  0  0
  1  2  1  0  0  0  0
  1  5  1  0  0  0  0
  2  6  1  0  0  0  0
  2  8  1  0  0  0  0
  4  1  1  0  0  0  0
  6 10  1  0  0  0  0
  7  2  1  0  0  0  0
  9  6  1  0  0  0  0
  9 12  1  0  0  0  0
 11  6  1  0  0  0  0
 13  9  1  0  0  0  0
 14  9  1  0  0  0  0
M  END
$$$$
