butane_opt
 OpenBabel08242015413D

 14 13  0  0  0  0  0  0  0  0999 V2000
   -3.9531    0.2802    0.0589 C   0  0  0  0  0  0  0  0  0  0  0  0
   -2.6923   -0.6432    0.0200 C   0  0  0  0  0  0  0  0  0  0  0  0
   -4.8212   -0.2690   -0.1224 H   0  0  0  0  0  0  0  0  0  0  0  0
   -4.0047    0.6819   -0.7180 H   0  0  0  0  0  0  0  0  0  0  0  0
   -4.0679    1.1813    1.0606 H   0  0  0  0  0  0  0  0  0  0  0  0
   -1.4024    0.1709   -0.0544 C   0  0  0  0  0  0  0  0  0  0  0  0
   -2.7844   -1.4067   -0.9152 H   0  0  0  0  0  0  0  0  0  0  0  0
   -2.6721   -1.2036    0.8961 H   0  0  0  0  0  0  0  0  0  0  0  0
   -0.1496   -0.6615    0.0792 C   0  0  0  0  0  0  0  0  0  0  0  0
   -1.3805    0.7224    0.7117 H   0  0  0  0  0  0  0  0  0  0  0  0
   -1.3856    0.8833   -1.0108 H   0  0  0  0  0  0  0  0  0  0  0  0
   -0.2222   -1.3922    1.0239 H   0  0  0  0  0  0  0  0  0  0  0  0
    0.7524   -0.0918    0.0369 H   0  0  0  0  0  0  0  0  0  0  0  0
   -0.0751   -1.3297   -0.7409 H   0  0  0  0  0  0  0  0  0  0  0  0
  1  5  1  0  0  0  0
  2  1  1  0  0  0  0
  2  8  1  0  0  0  0
  3  1  1  0  0  0  0
  4  1  1  0  0  0  0
  6  2  1  0  0  0  0
  6  9  1  0  0  0  0
  6 10  1  0  0  0  0
  7  2  1  0  0  0  0
  9 12  1  0  0  0  0
 11  6  1  0  0  0  0
 13  9  1  0  0  0  0
 14  9  1  0  0  0  0
M  END
$$$$
