butane_opt
 OpenBabel08242015413D

 14 13  0  0  0  0  0  0  0  0999 V2000
   -3.9402    0.2915   -0.0150 C   0  0  0  0  0  0  0  0  0  0  0  0
   -2.6869   -0.6440    0.0916 C   0  0  0  0  0  0  0  0  0  0  0  0
   -4.8732   -0.3282    0.0204 H   0  0  0  0  0  0  0  0  0  0  0  0
   -3.9110    0.8670   -0.8910 H   0  0  0  0  0  0  0  0  0  0  0  0
   -4.0497    0.9220    0.7913 H   0  0  0  0  0  0  0  0  0  0  0  0
   -1.3968    0.1711    0.0390 C   0  0  0  0  0  0  0  0  0  0  0  0
   -2.6557   -1.2747   -0.7164 H   0  0  0  0  0  0  0  0  0  0  0  0
   -2.7481   -1.2670    0.9220 H   0  0  0  0  0  0  0  0  0  0  0  0
   -0.1846   -0.6787   -0.0110 C   0  0  0  0  0  0  0  0  0  0  0  0
   -1.3388    0.8262    0.8889 H   0  0  0  0  0  0  0  0  0  0  0  0
   -1.3813    0.8362   -0.8819 H   0  0  0  0  0  0  0  0  0  0  0  0
   -0.2117   -1.1896    0.8001 H   0  0  0  0  0  0  0  0  0  0  0  0
    0.7280   -0.1029    0.1234 H   0  0  0  0  0  0  0  0  0  0  0  0
   -0.0889   -1.4405   -0.8742 H   0  0  0  0  0  0  0  0  0  0  0  0
  1  3  1  0  0  0  0
  1  2  1  0  0  0  0
  1  5  1  0  0  0  0
  2  8  1  0  0  0  0
  4  1  1  0  0  0  0
  6  2  1  0  0  0  0
  6 10  1  0  0  0  0
  7  2  1  0  0  0  0
  9  6  1  0  0  0  0
  9 13  1  0  0  0  0
  9 12  1  0  0  0  0
 11  6  1  0  0  0  0
 14  9  1  0  0  0  0
M  END
$$$$
