14
butane_opt
C  -3.947087   0.282429   0.052537
C  -2.664150  -0.629974  -0.008106
H  -4.800497  -0.264357   0.162940
H  -4.077488   0.832498  -0.808929
H  -3.887276   0.969943   0.908977
C  -1.403315   0.154819  -0.022804
H  -2.744129  -1.430452  -0.939821
H  -2.635177  -1.200384   0.802187
C  -0.196069  -0.665533   0.074314
H  -1.356054   0.780054   0.801462
H  -1.337049   0.873260  -0.960822
H  -0.171690  -1.389245   1.091395
H   0.712288  -0.073673   0.031707
H  -0.212226  -1.262286  -0.780941
