14
butane_opt
C  -3.925623   0.259413   0.066301
C  -2.691810  -0.614221   0.007715
H  -4.790177  -0.332236  -0.211281
H  -3.907430   0.716466  -0.751261
H  -3.990867   1.124715   1.059429
C  -1.415502   0.184234  -0.036848
H  -2.836335  -1.354154  -0.902316
H  -2.634024  -1.183497   0.888705
C  -0.168230  -0.684128   0.064250
H  -1.480731   0.729998   0.744836
H  -1.455573   0.873896  -0.959719
H  -0.146900  -1.450386   1.066295
H   0.733078  -0.082726  -0.029954
H  -0.109899  -1.244677  -0.664271
