14
butane_opt
C  -3.929945   0.283287   0.046428
C  -2.693382  -0.641068   0.042787
H  -4.782573  -0.285777  -0.206169
H  -3.902780   0.724992  -0.752075
H  -4.101505   1.182748   1.058400
C  -1.404237   0.161416  -0.045777
H  -2.715471  -1.376528  -0.865932
H  -2.627888  -1.229175   0.905427
C  -0.191787  -0.673163   0.064142
H  -1.435755   0.750566   0.745673
H  -1.361970   0.829493  -0.917752
H  -0.191900  -1.314745   1.008783
H   0.815383  -0.013203  -0.057069
H  -0.101830  -1.289254  -0.757838
