butane_opt
 OpenBabel08242015413D

 14 13  0  0  0  0  0  0  0  0999 V2000
   -3.9248    0.2682    0.0498 C   0  0  0  0  0  0  0  0  0  0  0  0
   -2.6909   -0.6176    0.0287 C   0  0  0  0  0  0  0  0  0  0  0  0
   -4.8701   -0.3550   -0.2914 H   0  0  0  0  0  0  0  0  0  0  0  0
   -3.9085    0.6981   -0.7353 H   0  0  0  0  0  0  0  0  0  0  0  0
   -4.0730    1.1661    1.0446 H   0  0  0  0  0  0  0  0  0  0  0  0
   -1.4124    0.1792   -0.0309 C   0  0  0  0  0  0  0  0  0  0  0  0
   -2.6672   -1.2937   -0.7959 H   0  0  0  0  0  0  0  0  0  0  0  0
   -2.6641   -1.3606    0.9777 H   0  0  0  0  0  0  0  0  0  0  0  0
   -0.1878   -0.6761    0.0555 C   0  0  0  0  0  0  0  0  0  0  0  0
   -1.4180    0.8056    0.7934 H   0  0  0  0  0  0  0  0  0  0  0  0
   -1.3378    0.8462   -0.9266 H   0  0  0  0  0  0  0  0  0  0  0  0
   -0.1102   -1.3947    0.9903 H   0  0  0  0  0  0  0  0  0  0  0  0
    0.7381   -0.1403   -0.0297 H   0  0  0  0  0  0  0  0  0  0  0  0
   -0.1203   -1.2887   -0.8045 H   0  0  0  0  0  0  0  0  0  0  0  0
  1  5  1  0  0  0  0
  2  1  1  0  0  0  0
  2  8  1  0  0  0  0
  3  1  1  0  0  0  0
  4  1  1  0  0  0  0
  6  2  1  0  0  0  0
  6  9  1  0  0  0  0
  6 10  1  0  0  0  0
  7  2  1  0  0  0  0
  9 12  1  0  0  0  0
 11  6  1  0  0  0  0
 13  9  1  0  0  0  0
 14  9  1  0  0  0  0
M  END
$$$$
