14
butane_opt
C  -3.966427   0.280455   0.076570
C  -2.695580  -0.627167  -0.041230
H  -4.937226  -0.309564   0.303703
H  -4.195528   1.008448  -0.885940
H  -3.877444   0.846019   0.872877
C  -1.398397   0.168015  -0.040979
H  -2.746678  -1.391541  -0.967727
H  -2.699563  -1.245533   0.823685
C  -0.137607  -0.671596   0.094764
H  -1.439097   0.868862   0.813748
H  -1.285848   0.721737  -0.940198
H  -0.113372  -1.350826   1.036293
H   0.778525  -0.083949   0.077866
H  -0.134868  -1.321419  -0.766784
