14
butane_opt
C  -3.933071   0.275636  -0.009774
C  -2.697950  -0.631182   0.082783
H  -4.826982  -0.303901   0.019231
H  -3.930710   0.951659  -0.954765
H  -4.001115   0.917622   0.829957
C  -1.410479   0.180909   0.027969
H  -2.676197  -1.302352  -0.777886
H  -2.755989  -1.292665   1.022842
C  -0.168887  -0.688940   0.002074
H  -1.321215   0.848864   0.878452
H  -1.407552   0.781325  -0.843514
H  -0.203766  -1.170817   0.844210
H   0.767476  -0.059854   0.113493
H  -0.145085  -1.475203  -0.941024
