butane_opt
 OpenBabel08242015413D

 14 13  0  0  0  0  0  0  0  0999 V2000
   -3.9775    0.2708   -0.0270 C   0  0  0  0  0  0  0  0  0  0  0  0
   -2.6944   -0.6131    0.0700 C   0  0  0  0  0  0  0  0  0  0  0  0
   -4.8708   -0.3427    0.0070 H   0  0  0  0  0  0  0  0  0  0  0  0
   -4.0361    0.9337   -0.9640 H   0  0  0  0  0  0  0  0  0  0  0  0
   -3.9944    0.8533    0.7858 H   0  0  0  0  0  0  0  0  0  0  0  0
   -1.3824    0.1747    0.0766 C   0  0  0  0  0  0  0  0  0  0  0  0
   -2.6555   -1.3061   -0.7583 H   0  0  0  0  0  0  0  0  0  0  0  0
   -2.7298   -1.2728    0.9503 H   0  0  0  0  0  0  0  0  0  0  0  0
   -0.1598   -0.6828    0.0061 C   0  0  0  0  0  0  0  0  0  0  0  0
   -1.3126    0.9010    0.9359 H   0  0  0  0  0  0  0  0  0  0  0  0
   -1.4475    0.7823   -0.8177 H   0  0  0  0  0  0  0  0  0  0  0  0
    0.0672   -1.3424    0.9152 H   0  0  0  0  0  0  0  0  0  0  0  0
    0.7691   -0.0928   -0.2059 H   0  0  0  0  0  0  0  0  0  0  0  0
   -0.2540   -1.3712   -0.9193 H   0  0  0  0  0  0  0  0  0  0  0  0
  1  3  1  0  0  0  0
  1  2  1  0  0  0  0
  1  5  1  0  0  0  0
  2  6  1  0  0  0  0
  2  8  1  0  0  0  0
  4  1  1  0  0  0  0
  6 10  1  0  0  0  0
  7  2  1  0  0  0  0
  9  6  1  0  0  0  0
  9 12  1  0  0  0  0
 11  6  1  0  0  0  0
 13  9  1  0  0  0  0
 14  9  1  0  0  0  0
M  END
$$$$
