14
butane_opt
C  -3.934055   0.236295   0.088523
C  -2.704294  -0.579913  -0.045645
H  -4.820878  -0.312063   0.190319
H  -4.008915   0.931035  -0.883923
H  -3.827656   0.831568   0.880646
C  -1.415482   0.184708  -0.039569
H  -2.809335  -1.324621  -0.932335
H  -2.604975  -1.186264   0.796191
C  -0.158133  -0.709170   0.088355
H  -1.463234   0.958935   0.838755
H  -1.441541   0.837954  -0.967028
H  -0.166036  -1.393552   1.057551
H   0.785626  -0.127235   0.063872
H  -0.123760  -1.265378  -0.702622
