butane_opt
 OpenBabel08242015413D

 14 13  0  0  0  0  0  0  0  0999 V2000
   -3.9341    0.2363    0.0885 C   0  0  0  0  0  0  0  0  0  0  0  0
   -2.7043   -0.5799   -0.0456 C   0  0  0  0  0  0  0  0  0  0  0  0
   -4.8209   -0.3121    0.1903 H   0  0  0  0  0  0  0  0  0  0  0  0
   -4.0089    0.9310   -0.8839 H   0  0  0  0  0  0  0  0  0  0  0  0
   -3.8277    0.8316    0.8806 H   0  0  0  0  0  0  0  0  0  0  0  0
   -1.4155    0.1847   -0.0396 C   0  0  0  0  0  0  0  0  0  0  0  0
   -2.8093   -1.3246   -0.9323 H   0  0  0  0  0  0  0  0  0  0  0  0
   -2.6050   -1.1863    0.7962 H   0  0  0  0  0  0  0  0  0  0  0  0
   -0.1581   -0.7092    0.0884 C   0  0  0  0  0  0  0  0  0  0  0  0
   -1.4632    0.9589    0.8388 H   0  0  0  0  0  0  0  0  0  0  0  0
   -1.4415    0.8380   -0.9670 H   0  0  0  0  0  0  0  0  0  0  0  0
   -0.1660   -1.3936    1.0576 H   0  0  0  0  0  0  0  0  0  0  0  0
    0.7856   -0.1272    0.0639 H   0  0  0  0  0  0  0  0  0  0  0  0
   -0.1238   -1.2654   -0.7026 H   0  0  0  0  0  0  0  0  0  0  0  0
  1  3  1  0  0  0  0
  1  5  1  0  0  0  0
  2  6  1  0  0  0  0
  2  1  1  0  0  0  0
  2  8  1  0  0  0  0
  4  1  1  0  0  0  0
  6  9  1  0  0  0  0
  6 10  1  0  0  0  0
  7  2  1  0  0  0  0
  9 12  1  0  0  0  0
 11  6  1  0  0  0  0
 13  9  1  0  0  0  0
 14  9  1  0  0  0  0
M  END
$$$$
