14
butane_opt
C  -3.948347   0.248858   0.062448
C  -2.715520  -0.599403   0.020563
H  -4.856871  -0.346598   0.025318
H  -3.970707   0.907952  -0.870283
H  -3.963915   0.879538   0.889915
C  -1.403131   0.210629  -0.032103
H  -2.814235  -1.386551  -0.903731
H  -2.726446  -1.211111   0.903609
C  -0.140526  -0.699705   0.057555
H  -1.480126   0.815838   0.779508
H  -1.391558   0.866532  -1.004270
H  -0.134269  -1.250523   0.910082
H   0.729653  -0.171137   0.176485
H   0.068012  -1.490068  -0.788438
