butane_opt
 OpenBabel08242015413D

 14 13  0  0  0  0  0  0  0  0999 V2000
   -3.9155    0.2375    0.0453 C   0  0  0  0  0  0  0  0  0  0  0  0
   -2.7073   -0.5934    0.0082 C   0  0  0  0  0  0  0  0  0  0  0  0
   -4.8638   -0.4177   -0.0848 H   0  0  0  0  0  0  0  0  0  0  0  0
   -3.9713    0.7117   -0.7519 H   0  0  0  0  0  0  0  0  0  0  0  0
   -3.9472    1.1145    1.0797 H   0  0  0  0  0  0  0  0  0  0  0  0
   -1.4228    0.2138   -0.0182 C   0  0  0  0  0  0  0  0  0  0  0  0
   -2.6820   -1.2879   -0.8789 H   0  0  0  0  0  0  0  0  0  0  0  0
   -2.7131   -1.2263    0.9309 H   0  0  0  0  0  0  0  0  0  0  0  0
   -0.1560   -0.7198    0.0609 C   0  0  0  0  0  0  0  0  0  0  0  0
   -1.4728    0.8744    0.7777 H   0  0  0  0  0  0  0  0  0  0  0  0
   -1.4002    0.9106   -1.0076 H   0  0  0  0  0  0  0  0  0  0  0  0
   -0.1839   -1.4347    1.0294 H   0  0  0  0  0  0  0  0  0  0  0  0
    0.7347   -0.1427   -0.0606 H   0  0  0  0  0  0  0  0  0  0  0  0
   -0.0783   -1.2468   -0.7228 H   0  0  0  0  0  0  0  0  0  0  0  0
  1  5  1  0  0  0  0
  2  1  1  0  0  0  0
  2  8  1  0  0  0  0
  3  1  1  0  0  0  0
  4  1  1  0  0  0  0
  6  2  1  0  0  0  0
  6  9  1  0  0  0  0
  6 10  1  0  0  0  0
  7  2  1  0  0  0  0
  9 12  1  0  0  0  0
 11  6  1  0  0  0  0
 13  9  1  0  0  0  0
 14  9  1  0  0  0  0
M  END
$$$$
