14
butane_opt
C  -3.937710   0.278640   0.054310
C  -2.693860  -0.643015   0.006611
H  -4.795284  -0.294273  -0.067599
H  -3.970816   0.792517  -0.755552
H  -3.969465   1.146734   1.094850
C  -1.385322   0.168414  -0.051391
H  -2.688715  -1.303932  -0.832494
H  -2.744948  -1.267130   0.904558
C  -0.181115  -0.684147   0.077664
H  -1.472700   0.849393   0.747392
H  -1.358404   0.863286  -0.970375
H  -0.191552  -1.322297   1.009503
H   0.790481  -0.064766   0.060283
H  -0.247387  -1.305771  -0.771297
