butane_opt
 OpenBabel08242015413D

 14 13  0  0  0  0  0  0  0  0999 V2000
   -3.9446    0.2957    0.0526 C   0  0  0  0  0  0  0  0  0  0  0  0
   -2.6814   -0.6296    0.0251 C   0  0  0  0  0  0  0  0  0  0  0  0
   -4.8982   -0.3712    0.0971 H   0  0  0  0  0  0  0  0  0  0  0  0
   -3.9828    0.8954   -0.7907 H   0  0  0  0  0  0  0  0  0  0  0  0
   -3.9597    0.9302    0.8925 H   0  0  0  0  0  0  0  0  0  0  0  0
   -1.4053    0.1563   -0.0401 C   0  0  0  0  0  0  0  0  0  0  0  0
   -2.7546   -1.4361   -0.8901 H   0  0  0  0  0  0  0  0  0  0  0  0
   -2.6813   -1.2279    0.8829 H   0  0  0  0  0  0  0  0  0  0  0  0
   -0.1672   -0.6776    0.0620 C   0  0  0  0  0  0  0  0  0  0  0  0
   -1.4082    0.7578    0.7486 H   0  0  0  0  0  0  0  0  0  0  0  0
   -1.3588    0.8689   -1.0018 H   0  0  0  0  0  0  0  0  0  0  0  0
   -0.3681   -1.1613    0.8933 H   0  0  0  0  0  0  0  0  0  0  0  0
    0.7482   -0.0495    0.2319 H   0  0  0  0  0  0  0  0  0  0  0  0
    0.0154   -1.4143   -0.8347 H   0  0  0  0  0  0  0  0  0  0  0  0
  1  3  1  0  0  0  0
  1  5  1  0  0  0  0
  2  1  1  0  0  0  0
  2  8  1  0  0  0  0
  4  1  1  0  0  0  0
  6  2  1  0  0  0  0
  6  9  1  0  0  0  0
  6 10  1  0  0  0  0
  7  2  1  0  0  0  0
  9 13  1  0  0  0  0
  9 12  1  0  0  0  0
 11  6  1  0  0  0  0
 14  9  1  0  0  0  0
M  END
$$$$
