14
butane_opt
C  -3.937539   0.266554   0.063955
C  -2.684702  -0.613106  -0.040760
H  -4.826080  -0.303552   0.295422
H  -4.141623   0.898726  -0.760701
H  -3.853576   0.930803   0.934208
C  -1.404631   0.160318  -0.044009
H  -2.685618  -1.346361  -0.969418
H  -2.613856  -1.197170   0.829306
C  -0.173778  -0.678200   0.087226
H  -1.472030   0.816655   0.786950
H  -1.355775   0.773611  -0.895279
H  -0.280344  -1.367559   1.057987
H   0.751546  -0.075715   0.046238
H  -0.129176  -1.224904  -0.674881
