14
butane_opt
C  -3.957879   0.279219  -0.022826
C  -2.684432  -0.627816   0.079822
H  -4.845391  -0.331947   0.024513
H  -3.956302   1.088443  -1.101588
H  -3.990580   0.846423   0.751059
C  -1.393011   0.144444   0.077139
H  -2.647794  -1.257877  -0.762428
H  -2.714311  -1.344541   1.002780
C  -0.172586  -0.663716  -0.025536
H  -1.383666   0.991973   1.065531
H  -1.429918   0.649390  -0.733704
H  -0.084779  -1.307713   0.865095
H   0.733759  -0.061567  -0.135742
H  -0.220501  -1.310989  -0.858737
