butane_opt
 OpenBabel08242015413D

 14 13  0  0  0  0  0  0  0  0999 V2000
   -3.9290    0.2760   -0.0261 C   0  0  0  0  0  0  0  0  0  0  0  0
   -2.6892   -0.6242    0.0941 C   0  0  0  0  0  0  0  0  0  0  0  0
   -4.8599   -0.3015   -0.0085 H   0  0  0  0  0  0  0  0  0  0  0  0
   -3.9040    0.9598   -0.9941 H   0  0  0  0  0  0  0  0  0  0  0  0
   -4.0051    0.8466    0.7331 H   0  0  0  0  0  0  0  0  0  0  0  0
   -1.3977    0.1637    0.0745 C   0  0  0  0  0  0  0  0  0  0  0  0
   -2.6159   -1.3281   -0.7815 H   0  0  0  0  0  0  0  0  0  0  0  0
   -2.7412   -1.2166    0.9651 H   0  0  0  0  0  0  0  0  0  0  0  0
   -0.1858   -0.6715   -0.0081 C   0  0  0  0  0  0  0  0  0  0  0  0
   -1.3749    0.8854    0.8932 H   0  0  0  0  0  0  0  0  0  0  0  0
   -1.4223    0.7271   -0.7630 H   0  0  0  0  0  0  0  0  0  0  0  0
   -0.0762   -1.2658    0.8883 H   0  0  0  0  0  0  0  0  0  0  0  0
    0.6667   -0.1451   -0.1879 H   0  0  0  0  0  0  0  0  0  0  0  0
   -0.2684   -1.3689   -0.9277 H   0  0  0  0  0  0  0  0  0  0  0  0
  1  3  1  0  0  0  0
  1  2  1  0  0  0  0
  1  5  1  0  0  0  0
  2  8  1  0  0  0  0
  4  1  1  0  0  0  0
  6  2  1  0  0  0  0
  6 10  1  0  0  0  0
  7  2  1  0  0  0  0
  9  6  1  0  0  0  0
  9 12  1  0  0  0  0
 11  6  1  0  0  0  0
 13  9  1  0  0  0  0
 14  9  1  0  0  0  0
M  END
$$$$
