butane_opt
 OpenBabel08242015413D

 14 13  0  0  0  0  0  0  0  0999 V2000
   -3.9397    0.2617    0.0323 C   0  0  0  0  0  0  0  0  0  0  0  0
   -2.7081   -0.6077    0.0242 C   0  0  0  0  0  0  0  0  0  0  0  0
   -4.8775   -0.3195   -0.0620 H   0  0  0  0  0  0  0  0  0  0  0  0
   -3.9620    0.7757   -0.8049 H   0  0  0  0  0  0  0  0  0  0  0  0
   -4.0119    1.0138    0.9497 H   0  0  0  0  0  0  0  0  0  0  0  0
   -1.3954    0.1826   -0.0033 C   0  0  0  0  0  0  0  0  0  0  0  0
   -2.7445   -1.2677   -0.8200 H   0  0  0  0  0  0  0  0  0  0  0  0
   -2.7433   -1.2667    0.9314 H   0  0  0  0  0  0  0  0  0  0  0  0
   -0.1532   -0.7000    0.0434 C   0  0  0  0  0  0  0  0  0  0  0  0
   -1.4438    0.8797    0.8460 H   0  0  0  0  0  0  0  0  0  0  0  0
   -1.3699    0.8543   -0.9059 H   0  0  0  0  0  0  0  0  0  0  0  0
   -0.0969   -1.4038    0.9707 H   0  0  0  0  0  0  0  0  0  0  0  0
    0.7659   -0.0989   -0.0241 H   0  0  0  0  0  0  0  0  0  0  0  0
   -0.1784   -1.2841   -0.7821 H   0  0  0  0  0  0  0  0  0  0  0  0
  1  5  1  0  0  0  0
  2  1  1  0  0  0  0
  2  8  1  0  0  0  0
  3  1  1  0  0  0  0
  4  1  1  0  0  0  0
  6  2  1  0  0  0  0
  6  9  1  0  0  0  0
  6 10  1  0  0  0  0
  7  2  1  0  0  0  0
  9 12  1  0  0  0  0
 11  6  1  0  0  0  0
 13  9  1  0  0  0  0
 14  9  1  0  0  0  0
M  END
$$$$
