14
butane_opt
C  -3.963299   0.269960  -0.019647
C  -2.689323  -0.643663   0.077621
H  -4.814229  -0.236211   0.027866
H  -4.099087   0.929407  -0.887391
H  -3.972445   0.882046   0.787921
C  -1.405943   0.193486   0.042953
H  -2.690823  -1.320444  -0.730679
H  -2.717879  -1.245368   0.978513
C  -0.146275  -0.689294   0.008830
H  -1.328577   0.802349   0.858116
H  -1.393952   0.854913  -0.879885
H  -0.162222  -1.166582   0.813441
H   0.788392  -0.072280   0.083314
H  -0.175751  -1.464089  -0.952327
