butane_opt
 OpenBabel08242015413D

 14 13  0  0  0  0  0  0  0  0999 V2000
   -3.9592    0.2479    0.0459 C   0  0  0  0  0  0  0  0  0  0  0  0
   -2.6991   -0.5962    0.0453 C   0  0  0  0  0  0  0  0  0  0  0  0
   -4.8787   -0.3799   -0.2603 H   0  0  0  0  0  0  0  0  0  0  0  0
   -3.7971    0.6852   -0.7592 H   0  0  0  0  0  0  0  0  0  0  0  0
   -4.0127    1.1617    1.0362 H   0  0  0  0  0  0  0  0  0  0  0  0
   -1.4219    0.1858   -0.0507 C   0  0  0  0  0  0  0  0  0  0  0  0
   -2.7186   -1.2562   -0.8080 H   0  0  0  0  0  0  0  0  0  0  0  0
   -2.6799   -1.2448    0.9775 H   0  0  0  0  0  0  0  0  0  0  0  0
   -0.1463   -0.6967    0.0575 C   0  0  0  0  0  0  0  0  0  0  0  0
   -1.3953    0.8896    0.8294 H   0  0  0  0  0  0  0  0  0  0  0  0
   -1.3498    0.7768   -0.9157 H   0  0  0  0  0  0  0  0  0  0  0  0
   -0.1244   -1.3711    0.9929 H   0  0  0  0  0  0  0  0  0  0  0  0
    0.7045   -0.1245   -0.0446 H   0  0  0  0  0  0  0  0  0  0  0  0
   -0.0518   -1.3105   -0.7691 H   0  0  0  0  0  0  0  0  0  0  0  0
  1  5  1  0  0  0  0
  2  1  1  0  0  0  0
  2  8  1  0  0  0  0
  3  1  1  0  0  0  0
  4  1  1  0  0  0  0
  6  2  1  0  0  0  0
  6  9  1  0  0  0  0
  6 10  1  0  0  0  0
  7  2  1  0  0  0  0
  9 12  1  0  0  0  0
 11  6  1  0  0  0  0
 13  9  1  0  0  0  0
 14  9  1  0  0  0  0
M  END
$$$$
