butane_opt
 OpenBabel08242015413D

 14 13  0  0  0  0  0  0  0  0999 V2000
   -3.9663    0.2751    0.0379 C   0  0  0  0  0  0  0  0  0  0  0  0
   -2.6843   -0.6174    0.0380 C   0  0  0  0  0  0  0  0  0  0  0  0
   -4.8885   -0.3094   -0.1491 H   0  0  0  0  0  0  0  0  0  0  0  0
   -3.8712    0.7175   -0.7527 H   0  0  0  0  0  0  0  0  0  0  0  0
   -4.0728    1.1352    1.0408 H   0  0  0  0  0  0  0  0  0  0  0  0
   -1.3843    0.1535   -0.0335 C   0  0  0  0  0  0  0  0  0  0  0  0
   -2.6609   -1.3535   -0.8553 H   0  0  0  0  0  0  0  0  0  0  0  0
   -2.6935   -1.2285    0.9665 H   0  0  0  0  0  0  0  0  0  0  0  0
   -0.1768   -0.6771    0.0635 C   0  0  0  0  0  0  0  0  0  0  0  0
   -1.4053    0.7633    0.7702 H   0  0  0  0  0  0  0  0  0  0  0  0
   -1.3863    0.8597   -0.9703 H   0  0  0  0  0  0  0  0  0  0  0  0
   -0.1049   -1.3104    0.9598 H   0  0  0  0  0  0  0  0  0  0  0  0
    0.7576   -0.0403   -0.0059 H   0  0  0  0  0  0  0  0  0  0  0  0
   -0.1631   -1.3152   -0.8064 H   0  0  0  0  0  0  0  0  0  0  0  0
  1  2  1  0  0  0  0
  1  5  1  0  0  0  0
  2  8  1  0  0  0  0
  3  1  1  0  0  0  0
  4  1  1  0  0  0  0
  6  2  1  0  0  0  0
  6  9  1  0  0  0  0
  6 10  1  0  0  0  0
  7  2  1  0  0  0  0
  9 12  1  0  0  0  0
 11  6  1  0  0  0  0
 13  9  1  0  0  0  0
 14  9  1  0  0  0  0
M  END
$$$$
