14
butane_opt
C  -3.957610   0.274589   0.047853
C  -2.692397  -0.618376  -0.015790
H  -4.793669  -0.271124  -0.031614
H  -4.037845   0.808589  -0.799274
H  -3.928442   1.034138   0.995666
C  -1.401907   0.158668  -0.003018
H  -2.670717  -1.358575  -0.879371
H  -2.671166  -1.251059   0.848794
C  -0.164551  -0.680048   0.075163
H  -1.393580   0.884143   0.848186
H  -1.360430   0.766398  -0.912132
H  -0.061247  -1.547610   1.097012
H   0.839345   0.024002  -0.270121
H  -0.361859  -1.149766  -0.676015
