14
butane_opt
C  -3.959186   0.247896   0.045930
C  -2.699068  -0.596194   0.045338
H  -4.878650  -0.379886  -0.260299
H  -3.797062   0.685211  -0.759247
H  -4.012679   1.161736   1.036161
C  -1.421876   0.185773  -0.050678
H  -2.718623  -1.256223  -0.807983
H  -2.679936  -1.244769   0.977514
C  -0.146338  -0.696747   0.057473
H  -1.395333   0.889642   0.829425
H  -1.349796   0.776826  -0.915724
H  -0.124420  -1.371138   0.992852
H   0.704500  -0.124515  -0.044558
H  -0.051811  -1.310478  -0.769145
