14
butane_opt
C  -3.952867   0.280733   0.004587
C  -2.688523  -0.626363   0.041747
H  -4.895246  -0.313655  -0.032043
H  -3.966700   0.989754  -0.927821
H  -4.000093   0.908905   0.820979
C  -1.377073   0.159802   0.053326
H  -2.663006  -1.294168  -0.833277
H  -2.709713  -1.311217   0.954341
C  -0.184004  -0.688271   0.007914
H  -1.381453   0.944281   0.995345
H  -1.387046   0.701686  -0.791729
H  -0.089435  -1.402253   0.943390
H   0.769521  -0.031496  -0.225309
H  -0.271310  -1.163986  -0.754169
