14
butane_opt
C  -3.971277   0.288288   0.039639
C  -2.701276  -0.642719   0.038565
H  -4.904805  -0.295958   0.042199
H  -4.111157   0.886548  -0.842221
H  -3.952459   1.006812   0.892032
C  -1.372332   0.160866  -0.032264
H  -2.719241  -1.327171  -0.859501
H  -2.705522  -1.222154   0.927786
C  -0.157964  -0.667870   0.052850
H  -1.396636   0.731919   0.756566
H  -1.314863   0.823179  -0.919365
H  -0.219973  -1.201088   0.911436
H   0.758414  -0.093574   0.221996
H  -0.026504  -1.449709  -0.889814
