14
butane_opt
C  -3.964810   0.281596  -0.021318
C  -2.684350  -0.654891   0.070274
H  -4.864437  -0.287118   0.046649
H  -3.935647   0.956735  -0.980393
H  -4.060315   0.915426   0.799321
C  -1.384025   0.171866   0.073140
H  -2.631122  -1.326740  -0.782877
H  -2.711984  -1.215029   0.943365
C  -0.165466  -0.672285  -0.021237
H  -1.375335   0.933168   0.997062
H  -1.412182   0.796559  -0.782645
H  -0.108928  -1.432050   0.981041
H   0.708391  -0.053701  -0.160789
H  -0.250597  -1.279627  -0.823694
