14
butane_opt
C  -3.932154   0.275202  -0.015223
C  -2.688217  -0.633534   0.088319
H  -4.795860  -0.267509  -0.120658
H  -3.859427   0.730501  -0.815769
H  -4.094517   1.024110   0.896295
C  -1.410122   0.189796   0.024202
H  -2.682910  -1.273225  -0.782121
H  -2.741233  -1.253645   0.972357
C  -0.186460  -0.695115   0.008463
H  -1.260197   0.886150   0.892457
H  -1.479273   0.762510  -0.844156
H  -0.142261  -1.372001   0.887505
H   0.803282  -0.027726  -0.080923
H  -0.178299  -1.305281  -0.800815
