14
butane_opt
C  -3.935068   0.272663   0.081758
C  -2.668719  -0.637155  -0.020120
H  -4.832680  -0.256041   0.127284
H  -4.058342   0.898465  -0.798193
H  -4.010607   0.966375   0.919815
C  -1.410487   0.170164  -0.068201
H  -2.711464  -1.312648  -0.822770
H  -2.647653  -1.261430   0.876854
C  -0.183568  -0.668377   0.085135
H  -1.440169   0.814902   0.744669
H  -1.299652   0.769540  -0.945767
H  -0.311038  -1.278067   0.957704
H   0.745435  -0.034523   0.254899
H  -0.083339  -1.424938  -0.821222
