butane_opt
 OpenBabel08242015413D

 14 13  0  0  0  0  0  0  0  0999 V2000
   -3.9666    0.2571    0.0018 C   0  0  0  0  0  0  0  0  0  0  0  0
   -2.6931   -0.6189    0.0796 C   0  0  0  0  0  0  0  0  0  0  0  0
   -4.9052   -0.3387    0.0103 H   0  0  0  0  0  0  0  0  0  0  0  0
   -3.9581    0.9860   -0.9606 H   0  0  0  0  0  0  0  0  0  0  0  0
   -3.9746    0.8057    0.7711 H   0  0  0  0  0  0  0  0  0  0  0  0
   -1.3957    0.2106    0.0103 C   0  0  0  0  0  0  0  0  0  0  0  0
   -2.7848   -1.2956   -0.7240 H   0  0  0  0  0  0  0  0  0  0  0  0
   -2.7031   -1.2411    0.9701 H   0  0  0  0  0  0  0  0  0  0  0  0
   -0.1549   -0.7113    0.0196 C   0  0  0  0  0  0  0  0  0  0  0  0
   -1.3179    0.8905    0.8673 H   0  0  0  0  0  0  0  0  0  0  0  0
   -1.4312    0.8293   -0.8611 H   0  0  0  0  0  0  0  0  0  0  0  0
   -0.0942   -1.0600    0.7715 H   0  0  0  0  0  0  0  0  0  0  0  0
    0.7159   -0.1749    0.1832 H   0  0  0  0  0  0  0  0  0  0  0  0
   -0.0416   -1.5342   -0.9630 H   0  0  0  0  0  0  0  0  0  0  0  0
  1  3  1  0  0  0  0
  1  2  1  0  0  0  0
  1  5  1  0  0  0  0
  2  8  1  0  0  0  0
  4  1  1  0  0  0  0
  6  9  1  0  0  0  0
  6  2  1  0  0  0  0
  6 10  1  0  0  0  0
  7  2  1  0  0  0  0
  9 13  1  0  0  0  0
  9 12  1  0  0  0  0
 11  6  1  0  0  0  0
 14  9  1  0  0  0  0
M  END
$$$$
