butane_opt
 OpenBabel08242015413D

 14 13  0  0  0  0  0  0  0  0999 V2000
   -3.9443    0.2854   -0.0292 C   0  0  0  0  0  0  0  0  0  0  0  0
   -2.6827   -0.6155    0.0385 C   0  0  0  0  0  0  0  0  0  0  0  0
   -4.8791   -0.3200    0.1452 H   0  0  0  0  0  0  0  0  0  0  0  0
   -4.0246    0.9129   -0.9304 H   0  0  0  0  0  0  0  0  0  0  0  0
   -3.9397    0.8891    0.8379 H   0  0  0  0  0  0  0  0  0  0  0  0
   -1.3841    0.1528    0.0812 C   0  0  0  0  0  0  0  0  0  0  0  0
   -2.6347   -1.3105   -0.7732 H   0  0  0  0  0  0  0  0  0  0  0  0
   -2.7108   -1.3578    1.0121 H   0  0  0  0  0  0  0  0  0  0  0  0
   -0.1849   -0.6746   -0.0085 C   0  0  0  0  0  0  0  0  0  0  0  0
   -1.3529    0.8902    0.9655 H   0  0  0  0  0  0  0  0  0  0  0  0
   -1.4291    0.7392   -0.7762 H   0  0  0  0  0  0  0  0  0  0  0  0
   -0.1192   -1.3910    0.9601 H   0  0  0  0  0  0  0  0  0  0  0  0
    0.7021   -0.0738   -0.1510 H   0  0  0  0  0  0  0  0  0  0  0  0
   -0.2822   -1.2169   -0.8232 H   0  0  0  0  0  0  0  0  0  0  0  0
  1  2  1  0  0  0  0
  1  3  1  0  0  0  0
  1  5  1  0  0  0  0
  2  6  1  0  0  0  0
  2  8  1  0  0  0  0
  4  1  1  0  0  0  0
  6 10  1  0  0  0  0
  7  2  1  0  0  0  0
  9  6  1  0  0  0  0
  9 12  1  0  0  0  0
 11  6  1  0  0  0  0
 13  9  1  0  0  0  0
 14  9  1  0  0  0  0
M  END
$$$$
