butane_opt
 OpenBabel08242015413D

 14 13  0  0  0  0  0  0  0  0999 V2000
   -3.9322    0.2752   -0.0152 C   0  0  0  0  0  0  0  0  0  0  0  0
   -2.6882   -0.6335    0.0883 C   0  0  0  0  0  0  0  0  0  0  0  0
   -4.7959   -0.2675   -0.1207 H   0  0  0  0  0  0  0  0  0  0  0  0
   -3.8594    0.7305   -0.8158 H   0  0  0  0  0  0  0  0  0  0  0  0
   -4.0945    1.0241    0.8963 H   0  0  0  0  0  0  0  0  0  0  0  0
   -1.4101    0.1898    0.0242 C   0  0  0  0  0  0  0  0  0  0  0  0
   -2.6829   -1.2732   -0.7821 H   0  0  0  0  0  0  0  0  0  0  0  0
   -2.7412   -1.2536    0.9724 H   0  0  0  0  0  0  0  0  0  0  0  0
   -0.1865   -0.6951    0.0085 C   0  0  0  0  0  0  0  0  0  0  0  0
   -1.2602    0.8861    0.8925 H   0  0  0  0  0  0  0  0  0  0  0  0
   -1.4793    0.7625   -0.8442 H   0  0  0  0  0  0  0  0  0  0  0  0
   -0.1423   -1.3720    0.8875 H   0  0  0  0  0  0  0  0  0  0  0  0
    0.8033   -0.0277   -0.0809 H   0  0  0  0  0  0  0  0  0  0  0  0
   -0.1783   -1.3053   -0.8008 H   0  0  0  0  0  0  0  0  0  0  0  0
  1  2  1  0  0  0  0
  1  5  1  0  0  0  0
  2  8  1  0  0  0  0
  3  1  1  0  0  0  0
  4  1  1  0  0  0  0
  6  2  1  0  0  0  0
  6 10  1  0  0  0  0
  7  2  1  0  0  0  0
  9  6  1  0  0  0  0
  9 12  1  0  0  0  0
 11  6  1  0  0  0  0
 13  9  1  0  0  0  0
 14  9  1  0  0  0  0
M  END
$$$$
