14
butane_opt
C  -3.945712   0.251230  -0.014621
C  -2.713532  -0.607410   0.066550
H  -4.900775  -0.350600   0.022438
H  -3.953198   0.834971  -0.891765
H  -4.038120   0.934583   0.811113
C  -1.417005   0.203144   0.051059
H  -2.684649  -1.207782  -0.733231
H  -2.760198  -1.246605   0.967414
C  -0.126989  -0.718934  -0.010574
H  -1.365852   0.981564   0.916689
H  -1.409084   0.776851  -0.807148
H  -0.130584  -1.352474   0.931121
H   0.813652  -0.109676  -0.055557
H  -0.138331  -1.286261  -0.817551
