14
butane_opt
C  -3.966614   0.257065   0.001765
C  -2.693126  -0.618927   0.079586
H  -4.905190  -0.338665   0.010308
H  -3.958084   0.985985  -0.960601
H  -3.974570   0.805677   0.771087
C  -1.395708   0.210557   0.010336
H  -2.784821  -1.295571  -0.723992
H  -2.703051  -1.241146   0.970138
C  -0.154895  -0.711258   0.019626
H  -1.317900   0.890509   0.867332
H  -1.431173   0.829321  -0.861054
H  -0.094165  -1.060034   0.771489
H   0.715942  -0.174900   0.183216
H  -0.041597  -1.534158  -0.962964
