butane_opt
 OpenBabel08242015413D

 14 13  0  0  0  0  0  0  0  0999 V2000
   -3.9650    0.2700    0.0394 C   0  0  0  0  0  0  0  0  0  0  0  0
   -2.7127   -0.6205    0.0539 C   0  0  0  0  0  0  0  0  0  0  0  0
   -4.8260   -0.2607   -0.2139 H   0  0  0  0  0  0  0  0  0  0  0  0
   -3.8603    0.7549   -0.8144 H   0  0  0  0  0  0  0  0  0  0  0  0
   -4.1215    1.1200    1.0419 H   0  0  0  0  0  0  0  0  0  0  0  0
   -1.3810    0.1625   -0.0215 C   0  0  0  0  0  0  0  0  0  0  0  0
   -2.7180   -1.2904   -0.8218 H   0  0  0  0  0  0  0  0  0  0  0  0
   -2.6848   -1.2325    0.9036 H   0  0  0  0  0  0  0  0  0  0  0  0
   -0.1543   -0.6924    0.0402 C   0  0  0  0  0  0  0  0  0  0  0  0
   -1.4032    0.8012    0.7601 H   0  0  0  0  0  0  0  0  0  0  0  0
   -1.3083    0.8352   -0.9414 H   0  0  0  0  0  0  0  0  0  0  0  0
   -0.1469   -1.3236    0.9316 H   0  0  0  0  0  0  0  0  0  0  0  0
    0.7732   -0.0583    0.0633 H   0  0  0  0  0  0  0  0  0  0  0  0
   -0.1688   -1.2521   -0.7868 H   0  0  0  0  0  0  0  0  0  0  0  0
  1  2  1  0  0  0  0
  1  5  1  0  0  0  0
  2  8  1  0  0  0  0
  3  1  1  0  0  0  0
  4  1  1  0  0  0  0
  6  9  1  0  0  0  0
  6  2  1  0  0  0  0
  6 10  1  0  0  0  0
  7  2  1  0  0  0  0
  9 13  1  0  0  0  0
  9 12  1  0  0  0  0
 11  6  1  0  0  0  0
 14  9  1  0  0  0  0
M  END
$$$$
