14
butane_opt
C  -3.939969   0.276281  -0.031854
C  -2.687330  -0.616214   0.074521
H  -4.837953  -0.268025  -0.058695
H  -3.934818   0.941692  -0.956492
H  -3.966671   0.829847   0.733709
C  -1.396510   0.167247   0.092198
H  -2.667294  -1.276340  -0.731375
H  -2.758655  -1.254516   0.998088
C  -0.172270  -0.690125  -0.031423
H  -1.270229   0.893523   1.017197
H  -1.535784   0.683462  -0.719304
H  -0.147636  -1.392442   0.931435
H   0.776560  -0.031370  -0.220541
H  -0.333689  -1.228988  -0.794573
