14
butane_opt
C  -3.944433   0.259582  -0.000689
C  -2.709572  -0.632914   0.053317
H  -4.877328  -0.344988   0.018922
H  -3.994327   0.917927  -0.938066
H  -4.013685   0.895285   0.775427
C  -1.395097   0.217650   0.048514
H  -2.799967  -1.283568  -0.817685
H  -2.728772  -1.148316   0.901277
C  -0.147159  -0.712573   0.018961
H  -1.379721   0.952198   0.930989
H  -1.400401   0.797748  -0.802488
H  -0.003658  -1.423760   0.956437
H   0.751915  -0.118328  -0.229720
H  -0.212177  -1.309354  -0.801578
