14
butane_opt
C  -3.921325   0.278684  -0.006050
C  -2.675270  -0.639297   0.104469
H  -4.828736  -0.316418  -0.293044
H  -3.911973   0.805437  -0.865765
H  -4.167899   1.101789   0.965746
C  -1.400004   0.159861   0.017575
H  -2.726246  -1.337444  -0.758328
H  -2.654661  -1.264260   0.979004
C  -0.190278  -0.670083   0.005240
H  -1.417191   0.827701   0.884866
H  -1.444773   0.829264  -0.941722
H  -0.147635  -1.254241   0.906078
H   0.730710  -0.043700  -0.033927
H  -0.213262  -1.367593  -0.858450
