butane_opt
 OpenBabel08242015413D

 14 13  0  0  0  0  0  0  0  0999 V2000
   -3.9393    0.2583    0.0400 C   0  0  0  0  0  0  0  0  0  0  0  0
   -2.7197   -0.6184    0.0083 C   0  0  0  0  0  0  0  0  0  0  0  0
   -4.8431   -0.3372    0.1604 H   0  0  0  0  0  0  0  0  0  0  0  0
   -4.0357    0.9280   -0.8919 H   0  0  0  0  0  0  0  0  0  0  0  0
   -3.9023    0.8928    0.8932 H   0  0  0  0  0  0  0  0  0  0  0  0
   -1.4105    0.2060   -0.0140 C   0  0  0  0  0  0  0  0  0  0  0  0
   -2.7587   -1.3024   -0.8412 H   0  0  0  0  0  0  0  0  0  0  0  0
   -2.7229   -1.2123    0.8530 H   0  0  0  0  0  0  0  0  0  0  0  0
   -0.1400   -0.7058    0.0522 C   0  0  0  0  0  0  0  0  0  0  0  0
   -1.3614    0.9180    0.8531 H   0  0  0  0  0  0  0  0  0  0  0  0
   -1.3894    0.8049   -0.8996 H   0  0  0  0  0  0  0  0  0  0  0  0
   -0.1555   -1.3650    0.9758 H   0  0  0  0  0  0  0  0  0  0  0  0
    0.7536   -0.1247    0.0910 H   0  0  0  0  0  0  0  0  0  0  0  0
   -0.0906   -1.3557   -0.7873 H   0  0  0  0  0  0  0  0  0  0  0  0
  1  3  1  0  0  0  0
  1  5  1  0  0  0  0
  2  1  1  0  0  0  0
  2  8  1  0  0  0  0
  4  1  1  0  0  0  0
  6  2  1  0  0  0  0
  6  9  1  0  0  0  0
  6 10  1  0  0  0  0
  7  2  1  0  0  0  0
  9 13  1  0  0  0  0
  9 12  1  0  0  0  0
 11  6  1  0  0  0  0
 14  9  1  0  0  0  0
M  END
$$$$
