butane_opt
 OpenBabel08242015413D

 14 13  0  0  0  0  0  0  0  0999 V2000
   -3.9220    0.2684   -0.0456 C   0  0  0  0  0  0  0  0  0  0  0  0
   -2.6842   -0.6217    0.1056 C   0  0  0  0  0  0  0  0  0  0  0  0
   -4.7766   -0.3106   -0.0074 H   0  0  0  0  0  0  0  0  0  0  0  0
   -3.9845    0.9638   -1.0283 H   0  0  0  0  0  0  0  0  0  0  0  0
   -4.0872    0.8962    0.7528 H   0  0  0  0  0  0  0  0  0  0  0  0
   -1.4116    0.1724    0.0948 C   0  0  0  0  0  0  0  0  0  0  0  0
   -2.6762   -1.3582   -0.8105 H   0  0  0  0  0  0  0  0  0  0  0  0
   -2.7542   -1.2260    0.9793 H   0  0  0  0  0  0  0  0  0  0  0  0
   -0.1809   -0.6935   -0.0410 C   0  0  0  0  0  0  0  0  0  0  0  0
   -1.3002    0.9433    1.0578 H   0  0  0  0  0  0  0  0  0  0  0  0
   -1.4185    0.7458   -0.7570 H   0  0  0  0  0  0  0  0  0  0  0  0
   -0.0516   -1.3839    0.8949 H   0  0  0  0  0  0  0  0  0  0  0  0
    0.7588   -0.0828   -0.1784 H   0  0  0  0  0  0  0  0  0  0  0  0
   -0.3367   -1.1550   -0.8146 H   0  0  0  0  0  0  0  0  0  0  0  0
  1  3  1  0  0  0  0
  1  2  1  0  0  0  0
  1  5  1  0  0  0  0
  2  8  1  0  0  0  0
  4  1  1  0  0  0  0
  6  2  1  0  0  0  0
  6 10  1  0  0  0  0
  7  2  1  0  0  0  0
  9  6  1  0  0  0  0
  9 12  1  0  0  0  0
 11  6  1  0  0  0  0
 13  9  1  0  0  0  0
 14  9  1  0  0  0  0
M  END
$$$$
