14
butane_opt
C  -3.921835   0.257326  -0.016467
C  -2.704060  -0.607629   0.078078
H  -4.827097  -0.357093  -0.021398
H  -3.912148   0.824476  -0.893866
H  -4.012131   0.942422   0.841930
C  -1.413796   0.189819   0.029089
H  -2.732010  -1.223525  -0.722351
H  -2.705075  -1.277539   0.993010
C  -0.163642  -0.697176   0.004087
H  -1.404404   0.920143   0.924719
H  -1.448914   0.810267  -0.819521
H  -0.103628  -1.277678   0.869091
H   0.712170  -0.129501   0.006350
H  -0.147087  -1.420291  -0.880207
