butane_opt
 OpenBabel08242015413D

 14 13  0  0  0  0  0  0  0  0999 V2000
   -3.9444    0.2596   -0.0007 C   0  0  0  0  0  0  0  0  0  0  0  0
   -2.7096   -0.6329    0.0533 C   0  0  0  0  0  0  0  0  0  0  0  0
   -4.8773   -0.3450    0.0189 H   0  0  0  0  0  0  0  0  0  0  0  0
   -3.9943    0.9179   -0.9381 H   0  0  0  0  0  0  0  0  0  0  0  0
   -4.0137    0.8953    0.7754 H   0  0  0  0  0  0  0  0  0  0  0  0
   -1.3951    0.2177    0.0485 C   0  0  0  0  0  0  0  0  0  0  0  0
   -2.8000   -1.2836   -0.8177 H   0  0  0  0  0  0  0  0  0  0  0  0
   -2.7288   -1.1483    0.9013 H   0  0  0  0  0  0  0  0  0  0  0  0
   -0.1472   -0.7126    0.0190 C   0  0  0  0  0  0  0  0  0  0  0  0
   -1.3797    0.9522    0.9310 H   0  0  0  0  0  0  0  0  0  0  0  0
   -1.4004    0.7977   -0.8025 H   0  0  0  0  0  0  0  0  0  0  0  0
   -0.0037   -1.4238    0.9564 H   0  0  0  0  0  0  0  0  0  0  0  0
    0.7519   -0.1183   -0.2297 H   0  0  0  0  0  0  0  0  0  0  0  0
   -0.2122   -1.3094   -0.8016 H   0  0  0  0  0  0  0  0  0  0  0  0
  1  3  1  0  0  0  0
  1  2  1  0  0  0  0
  1  5  1  0  0  0  0
  2  8  1  0  0  0  0
  4  1  1  0  0  0  0
  6  2  1  0  0  0  0
  6 10  1  0  0  0  0
  7  2  1  0  0  0  0
  9  6  1  0  0  0  0
  9 12  1  0  0  0  0
 11  6  1  0  0  0  0
 13  9  1  0  0  0  0
 14  9  1  0  0  0  0
M  END
$$$$
