14
butane_opt
C  -3.917652   0.244358   0.060047
C  -2.702210  -0.576216   0.008217
H  -4.851395  -0.424737   0.042880
H  -3.932351   0.734921  -0.715614
H  -3.974995   0.963379   0.974265
C  -1.428403   0.196425  -0.047933
H  -2.787291  -1.287112  -0.861967
H  -2.656385  -1.127489   0.838824
C  -0.157043  -0.719319   0.074703
H  -1.399571   0.768785   0.726525
H  -1.415773   0.943050  -1.078293
H  -0.261648  -1.274765   0.943057
H   0.764127  -0.118504   0.222627
H  -0.029369  -1.407035  -0.778261
