butane_opt
 OpenBabel08242015413D

 14 13  0  0  0  0  0  0  0  0999 V2000
   -3.9400    0.2763   -0.0319 C   0  0  0  0  0  0  0  0  0  0  0  0
   -2.6873   -0.6162    0.0745 C   0  0  0  0  0  0  0  0  0  0  0  0
   -4.8380   -0.2680   -0.0587 H   0  0  0  0  0  0  0  0  0  0  0  0
   -3.9348    0.9417   -0.9565 H   0  0  0  0  0  0  0  0  0  0  0  0
   -3.9667    0.8298    0.7337 H   0  0  0  0  0  0  0  0  0  0  0  0
   -1.3965    0.1672    0.0922 C   0  0  0  0  0  0  0  0  0  0  0  0
   -2.6673   -1.2763   -0.7314 H   0  0  0  0  0  0  0  0  0  0  0  0
   -2.7587   -1.2545    0.9981 H   0  0  0  0  0  0  0  0  0  0  0  0
   -0.1723   -0.6901   -0.0314 C   0  0  0  0  0  0  0  0  0  0  0  0
   -1.2702    0.8935    1.0172 H   0  0  0  0  0  0  0  0  0  0  0  0
   -1.5358    0.6835   -0.7193 H   0  0  0  0  0  0  0  0  0  0  0  0
   -0.1476   -1.3924    0.9314 H   0  0  0  0  0  0  0  0  0  0  0  0
    0.7766   -0.0314   -0.2205 H   0  0  0  0  0  0  0  0  0  0  0  0
   -0.3337   -1.2290   -0.7946 H   0  0  0  0  0  0  0  0  0  0  0  0
  1  2  1  0  0  0  0
  1  5  1  0  0  0  0
  2  6  1  0  0  0  0
  2  8  1  0  0  0  0
  3  1  1  0  0  0  0
  4  1  1  0  0  0  0
  6 10  1  0  0  0  0
  7  2  1  0  0  0  0
  9  6  1  0  0  0  0
  9 12  1  0  0  0  0
 11  6  1  0  0  0  0
 13  9  1  0  0  0  0
 14  9  1  0  0  0  0
M  END
$$$$
