butane_opt
 OpenBabel08242015413D

 14 13  0  0  0  0  0  0  0  0999 V2000
   -3.9213    0.2787   -0.0060 C   0  0  0  0  0  0  0  0  0  0  0  0
   -2.6753   -0.6393    0.1045 C   0  0  0  0  0  0  0  0  0  0  0  0
   -4.8287   -0.3164   -0.2930 H   0  0  0  0  0  0  0  0  0  0  0  0
   -3.9120    0.8054   -0.8658 H   0  0  0  0  0  0  0  0  0  0  0  0
   -4.1679    1.1018    0.9657 H   0  0  0  0  0  0  0  0  0  0  0  0
   -1.4000    0.1599    0.0176 C   0  0  0  0  0  0  0  0  0  0  0  0
   -2.7262   -1.3374   -0.7583 H   0  0  0  0  0  0  0  0  0  0  0  0
   -2.6547   -1.2643    0.9790 H   0  0  0  0  0  0  0  0  0  0  0  0
   -0.1903   -0.6701    0.0052 C   0  0  0  0  0  0  0  0  0  0  0  0
   -1.4172    0.8277    0.8849 H   0  0  0  0  0  0  0  0  0  0  0  0
   -1.4448    0.8293   -0.9417 H   0  0  0  0  0  0  0  0  0  0  0  0
   -0.1476   -1.2542    0.9061 H   0  0  0  0  0  0  0  0  0  0  0  0
    0.7307   -0.0437   -0.0339 H   0  0  0  0  0  0  0  0  0  0  0  0
   -0.2133   -1.3676   -0.8585 H   0  0  0  0  0  0  0  0  0  0  0  0
  1  2  1  0  0  0  0
  1  5  1  0  0  0  0
  2  8  1  0  0  0  0
  3  1  1  0  0  0  0
  4  1  1  0  0  0  0
  6  2  1  0  0  0  0
  6 10  1  0  0  0  0
  7  2  1  0  0  0  0
  9  6  1  0  0  0  0
  9 12  1  0  0  0  0
 11  6  1  0  0  0  0
 13  9  1  0  0  0  0
 14  9  1  0  0  0  0
M  END
$$$$
