14
butane_opt
C  -3.985032   0.285528  -0.026076
C  -2.697692  -0.649758   0.086911
H  -4.913219  -0.302314   0.140335
H  -4.000482   1.002013  -1.023920
H  -3.990976   0.896711   0.774739
C  -1.381987   0.166176   0.031872
H  -2.680621  -1.180454  -0.678143
H  -2.617817  -1.348629   1.036375
C  -0.155768  -0.678845  -0.003019
H  -1.355569   0.874058   0.935470
H  -1.345051   0.769887  -0.807237
H  -0.158119  -1.076511   0.722629
H   0.784615  -0.005491   0.240820
H  -0.107687  -1.581801  -1.012938
