butane_opt
 OpenBabel08242015413D

 14 13  0  0  0  0  0  0  0  0999 V2000
   -3.9546    0.2512   -0.0023 C   0  0  0  0  0  0  0  0  0  0  0  0
   -2.7078   -0.6129    0.0476 C   0  0  0  0  0  0  0  0  0  0  0  0
   -4.9004   -0.3408    0.2598 H   0  0  0  0  0  0  0  0  0  0  0  0
   -4.0592    1.1103   -1.0611 H   0  0  0  0  0  0  0  0  0  0  0  0
   -3.8615    0.6950    0.7367 H   0  0  0  0  0  0  0  0  0  0  0  0
   -1.3947    0.2157    0.0430 C   0  0  0  0  0  0  0  0  0  0  0  0
   -2.7546   -1.2917   -0.8142 H   0  0  0  0  0  0  0  0  0  0  0  0
   -2.7453   -1.2144    0.9139 H   0  0  0  0  0  0  0  0  0  0  0  0
   -0.1466   -0.7097    0.0169 C   0  0  0  0  0  0  0  0  0  0  0  0
   -1.4059    0.9667    0.9553 H   0  0  0  0  0  0  0  0  0  0  0  0
   -1.2997    0.8161   -0.8082 H   0  0  0  0  0  0  0  0  0  0  0  0
   -0.0999   -1.2670    0.8323 H   0  0  0  0  0  0  0  0  0  0  0  0
    0.7129   -0.1863    0.0414 H   0  0  0  0  0  0  0  0  0  0  0  0
   -0.1498   -1.5004   -0.9223 H   0  0  0  0  0  0  0  0  0  0  0  0
  1  2  1  0  0  0  0
  1  3  1  0  0  0  0
  1  5  1  0  0  0  0
  2  8  1  0  0  0  0
  4  1  1  0  0  0  0
  6  2  1  0  0  0  0
  6 10  1  0  0  0  0
  7  2  1  0  0  0  0
  9 13  1  0  0  0  0
  9  6  1  0  0  0  0
  9 12  1  0  0  0  0
 11  6  1  0  0  0  0
 14  9  1  0  0  0  0
M  END
$$$$
