14
butane_opt
C  -3.924468   0.264334   0.073338
C  -2.708738  -0.615540  -0.006868
H  -4.816725  -0.310156   0.098338
H  -4.019732   0.869422  -0.810410
H  -3.907711   1.002011   0.929593
C  -1.406007   0.160870  -0.041196
H  -2.668776  -1.323091  -0.900320
H  -2.724286  -1.179350   0.859337
C  -0.165794  -0.681043   0.075155
H  -1.435143   0.776138   0.731337
H  -1.367902   0.931624  -1.045430
H  -0.259814  -1.282796   0.965886
H   0.760472  -0.094831   0.223863
H  -0.122190  -1.412778  -0.803232
