14
butane_opt
C  -3.951886   0.284365   0.050366
C  -2.684712  -0.643048   0.014395
H  -4.866254  -0.311660   0.098559
H  -4.100152   0.923490  -0.857962
H  -4.002676   0.975407   0.919771
C  -1.384756   0.168902  -0.032179
H  -2.716547  -1.345682  -0.893831
H  -2.681613  -1.272836   0.913057
C  -0.181212  -0.663643   0.073814
H  -1.376066   0.778566   0.755658
H  -1.306878   0.842189  -0.999077
H  -0.125187  -1.231760   0.892157
H   0.727484  -0.087727   0.191445
H  -0.143645  -1.497875  -0.857468
