butane_opt
 OpenBabel08242015413D

 14 13  0  0  0  0  0  0  0  0999 V2000
   -3.9519    0.2844    0.0504 C   0  0  0  0  0  0  0  0  0  0  0  0
   -2.6847   -0.6430    0.0144 C   0  0  0  0  0  0  0  0  0  0  0  0
   -4.8663   -0.3117    0.0986 H   0  0  0  0  0  0  0  0  0  0  0  0
   -4.1002    0.9235   -0.8580 H   0  0  0  0  0  0  0  0  0  0  0  0
   -4.0027    0.9754    0.9198 H   0  0  0  0  0  0  0  0  0  0  0  0
   -1.3848    0.1689   -0.0322 C   0  0  0  0  0  0  0  0  0  0  0  0
   -2.7165   -1.3457   -0.8938 H   0  0  0  0  0  0  0  0  0  0  0  0
   -2.6816   -1.2728    0.9131 H   0  0  0  0  0  0  0  0  0  0  0  0
   -0.1812   -0.6636    0.0738 C   0  0  0  0  0  0  0  0  0  0  0  0
   -1.3761    0.7786    0.7557 H   0  0  0  0  0  0  0  0  0  0  0  0
   -1.3069    0.8422   -0.9991 H   0  0  0  0  0  0  0  0  0  0  0  0
   -0.1252   -1.2318    0.8922 H   0  0  0  0  0  0  0  0  0  0  0  0
    0.7275   -0.0877    0.1914 H   0  0  0  0  0  0  0  0  0  0  0  0
   -0.1436   -1.4979   -0.8575 H   0  0  0  0  0  0  0  0  0  0  0  0
  1  3  1  0  0  0  0
  1  5  1  0  0  0  0
  2  1  1  0  0  0  0
  2  8  1  0  0  0  0
  4  1  1  0  0  0  0
  6  2  1  0  0  0  0
  6  9  1  0  0  0  0
  6 10  1  0  0  0  0
  7  2  1  0  0  0  0
  9 13  1  0  0  0  0
  9 12  1  0  0  0  0
 11  6  1  0  0  0  0
 14  9  1  0  0  0  0
M  END
$$$$
