14
butane_opt
C  -3.959933   0.294840  -0.004027
C  -2.711752  -0.644407   0.051352
H  -4.892576  -0.293287   0.001222
H  -3.945058   0.887079  -0.908502
H  -4.134294   0.963903   0.831104
C  -1.378285   0.165493   0.061475
H  -2.697095  -1.305692  -0.813094
H  -2.757643  -1.320351   0.932908
C  -0.142322  -0.688589   0.014758
H  -1.349520   0.817415   0.916427
H  -1.392064   0.844704  -0.887707
H  -0.022361  -1.270885   0.906347
H   0.787002  -0.039260  -0.171832
H  -0.315190  -1.277860  -0.832864
