butane_opt
 OpenBabel08242015413D

 14 13  0  0  0  0  0  0  0  0999 V2000
   -3.9442    0.2477    0.0252 C   0  0  0  0  0  0  0  0  0  0  0  0
   -2.7353   -0.5840    0.0583 C   0  0  0  0  0  0  0  0  0  0  0  0
   -4.8839   -0.3475   -0.0032 H   0  0  0  0  0  0  0  0  0  0  0  0
   -3.9988    0.7935   -0.8488 H   0  0  0  0  0  0  0  0  0  0  0  0
   -4.0241    0.9598    0.9132 H   0  0  0  0  0  0  0  0  0  0  0  0
   -1.3969    0.2010   -0.0333 C   0  0  0  0  0  0  0  0  0  0  0  0
   -2.7131   -1.2268   -0.7730 H   0  0  0  0  0  0  0  0  0  0  0  0
   -2.7545   -1.2707    0.9398 H   0  0  0  0  0  0  0  0  0  0  0  0
   -0.1303   -0.7103    0.0408 C   0  0  0  0  0  0  0  0  0  0  0  0
   -1.3426    0.8978    0.8437 H   0  0  0  0  0  0  0  0  0  0  0  0
   -1.4237    0.7803   -0.9043 H   0  0  0  0  0  0  0  0  0  0  0  0
   -0.2557   -1.2592    0.9045 H   0  0  0  0  0  0  0  0  0  0  0  0
    0.8187   -0.1192    0.1639 H   0  0  0  0  0  0  0  0  0  0  0  0
    0.0439   -1.5364   -0.8915 H   0  0  0  0  0  0  0  0  0  0  0  0
  1  2  1  0  0  0  0
  1  5  1  0  0  0  0
  2  8  1  0  0  0  0
  3  1  1  0  0  0  0
  4  1  1  0  0  0  0
  6  9  1  0  0  0  0
  6  2  1  0  0  0  0
  6 10  1  0  0  0  0
  7  2  1  0  0  0  0
  9 13  1  0  0  0  0
  9 12  1  0  0  0  0
 11  6  1  0  0  0  0
 14  9  1  0  0  0  0
M  END
$$$$
