14
butane_opt
C  -3.921510   0.253474  -0.032043
C  -2.697185  -0.587079   0.087659
H  -4.885890  -0.437015   0.077751
H  -3.887642   1.030162  -1.008609
H  -3.899958   0.793670   0.749854
C  -1.421129   0.197181   0.080681
H  -2.717669  -1.282288  -0.791663
H  -2.781925  -1.203266   0.969233
C  -0.175900  -0.711647  -0.020752
H  -1.366210   0.859038   0.937975
H  -1.424053   0.736521  -0.771763
H  -0.078176  -1.301285   0.854910
H   0.732036  -0.093772  -0.072470
H  -0.126178  -1.392512  -0.912043
