14
butane_opt
C  -3.954905   0.272699   0.041004
C  -2.702222  -0.631151   0.028304
H  -4.843646  -0.314983  -0.071454
H  -3.945758   0.796697  -0.796132
H  -4.097059   1.071741   0.980243
C  -1.392677   0.174504  -0.018705
H  -2.729651  -1.313020  -0.830114
H  -2.701433  -1.218704   0.874195
C  -0.151921  -0.684681   0.051915
H  -1.404646   0.808318   0.806275
H  -1.388417   0.845169  -0.931008
H  -0.156911  -1.351990   0.985778
H   0.784139  -0.087283  -0.011439
H  -0.120835  -1.281997  -0.776120
