14
butane_opt
C  -3.937509   0.270357  -0.013874
C  -2.685300  -0.617508   0.071916
H  -4.837083  -0.331617  -0.033434
H  -3.950968   0.888686  -0.951464
H  -4.028852   0.922364   0.843446
C  -1.401361   0.177978   0.064016
H  -2.726483  -1.388973  -0.828619
H  -2.765082  -1.162478   0.933739
C  -0.174086  -0.681896  -0.003286
H  -1.314578   0.879941   0.940092
H  -1.395195   0.802457  -0.835723
H  -0.116898  -1.458865   1.021837
H   0.711070  -0.114652  -0.234951
H  -0.218164  -1.294148  -0.836151
