14
butane_opt
C  -3.938288   0.280546  -0.018190
C  -2.679906  -0.633480   0.107302
H  -4.841413  -0.320032  -0.007943
H  -3.920098   0.999162  -0.983352
H  -3.957890   0.857885   0.750262
C  -1.415972   0.171028   0.039674
H  -2.628799  -1.324421  -0.729725
H  -2.688271  -1.290246   0.992923
C  -0.183454  -0.685380  -0.009273
H  -1.255525   0.795646   0.866078
H  -1.433466   0.824530  -0.835279
H  -0.285017  -1.042659   0.726396
H   0.705663  -0.082916   0.210966
H  -0.105269  -1.486214  -1.012950
