14
butane_opt
C  -3.938356   0.277071  -0.004263
C  -2.681261  -0.643061   0.088267
H  -4.892819  -0.323384  -0.048983
H  -3.840244   0.897537  -0.917127
H  -4.083498   0.913503   0.824917
C  -1.416694   0.189971   0.026309
H  -2.712600  -1.255041  -0.750126
H  -2.691947  -1.309824   1.012656
C  -0.165468  -0.683177  -0.002810
H  -1.414835   0.855989   0.860923
H  -1.361167   0.793869  -0.861357
H  -0.201294  -1.139122   0.794913
H   0.686592  -0.121998   0.115775
H  -0.086584  -1.484746  -0.903566
