butane_opt
 OpenBabel08242015413D

 14 13  0  0  0  0  0  0  0  0999 V2000
   -3.9135    0.2436    0.0359 C   0  0  0  0  0  0  0  0  0  0  0  0
   -2.7018   -0.5965    0.0246 C   0  0  0  0  0  0  0  0  0  0  0  0
   -4.8630   -0.3630    0.1380 H   0  0  0  0  0  0  0  0  0  0  0  0
   -3.9743    0.8471   -0.9028 H   0  0  0  0  0  0  0  0  0  0  0  0
   -3.8249    0.9156    0.9151 H   0  0  0  0  0  0  0  0  0  0  0  0
   -1.4304    0.2176   -0.0161 C   0  0  0  0  0  0  0  0  0  0  0  0
   -2.7146   -1.2978   -0.8568 H   0  0  0  0  0  0  0  0  0  0  0  0
   -2.7410   -1.2181    0.9167 H   0  0  0  0  0  0  0  0  0  0  0  0
   -0.1572   -0.7064    0.0445 C   0  0  0  0  0  0  0  0  0  0  0  0
   -1.5357    0.7794    0.7822 H   0  0  0  0  0  0  0  0  0  0  0  0
   -1.4374    0.8463   -0.8974 H   0  0  0  0  0  0  0  0  0  0  0  0
   -0.1760   -1.3017    0.9138 H   0  0  0  0  0  0  0  0  0  0  0  0
    0.7469   -0.1385    0.2129 H   0  0  0  0  0  0  0  0  0  0  0  0
   -0.0671   -1.4345   -0.8475 H   0  0  0  0  0  0  0  0  0  0  0  0
  1  3  1  0  0  0  0
  1  5  1  0  0  0  0
  2  1  1  0  0  0  0
  2  8  1  0  0  0  0
  4  1  1  0  0  0  0
  6  2  1  0  0  0  0
  6  9  1  0  0  0  0
  6 10  1  0  0  0  0
  7  2  1  0  0  0  0
  9 13  1  0  0  0  0
  9 12  1  0  0  0  0
 11  6  1  0  0  0  0
 14  9  1  0  0  0  0
M  END
$$$$
