14
butane_opt
C  -3.945413   0.242054  -0.018440
C  -2.710606  -0.605797   0.094544
H  -4.843549  -0.289463  -0.093416
H  -3.944658   0.891065  -0.971593
H  -4.030314   0.889267   0.838114
C  -1.395907   0.207112   0.027936
H  -2.768568  -1.181905  -0.674146
H  -2.765035  -1.353795   1.078570
C  -0.140472  -0.710233   0.001517
H  -1.394000   0.973058   0.924645
H  -1.466110   0.844225  -0.822938
H  -0.093980  -1.155324   0.746332
H   0.697358  -0.165235   0.124132
H  -0.093947  -1.538249  -1.004275
