14
butane_opt
C  -3.934865   0.241369   0.047169
C  -2.698873  -0.588026   0.046157
H  -4.883464  -0.327612  -0.214058
H  -3.754698   0.606498  -0.740046
H  -4.009085   1.073478   0.998478
C  -1.421713   0.213148  -0.024982
H  -2.727196  -1.310792  -0.861780
H  -2.676732  -1.175268   0.884506
C  -0.163690  -0.717492   0.046018
H  -1.426715   0.782345   0.738407
H  -1.364082   0.940300  -0.949788
H  -0.175312  -1.402886   0.980945
H   0.710278  -0.152646  -0.005597
H  -0.076973  -1.309705  -0.737323
