butane_opt
 OpenBabel08242015413D

 14 13  0  0  0  0  0  0  0  0999 V2000
   -3.9073    0.2354   -0.0020 C   0  0  0  0  0  0  0  0  0  0  0  0
   -2.6978   -0.5841    0.0485 C   0  0  0  0  0  0  0  0  0  0  0  0
   -4.8190   -0.4033    0.3320 H   0  0  0  0  0  0  0  0  0  0  0  0
   -4.0242    1.0989   -1.0417 H   0  0  0  0  0  0  0  0  0  0  0  0
   -3.9291    0.7164    0.7219 H   0  0  0  0  0  0  0  0  0  0  0  0
   -1.4317    0.2161    0.0428 C   0  0  0  0  0  0  0  0  0  0  0  0
   -2.7017   -1.3275   -0.8638 H   0  0  0  0  0  0  0  0  0  0  0  0
   -2.7728   -1.1446    0.8767 H   0  0  0  0  0  0  0  0  0  0  0  0
   -0.1637   -0.7159    0.0113 C   0  0  0  0  0  0  0  0  0  0  0  0
   -1.3679    0.8582    0.9113 H   0  0  0  0  0  0  0  0  0  0  0  0
   -1.4417    0.7580   -0.7972 H   0  0  0  0  0  0  0  0  0  0  0  0
   -0.1470   -1.2450    0.8851 H   0  0  0  0  0  0  0  0  0  0  0  0
    0.7360   -0.1365    0.0535 H   0  0  0  0  0  0  0  0  0  0  0  0
   -0.1294   -1.4589   -0.8643 H   0  0  0  0  0  0  0  0  0  0  0  0
  1  2  1  0  0  0  0
  1  3  1  0  0  0  0
  1  5  1  0  0  0  0
  2  8  1  0  0  0  0
  4  1  1  0  0  0  0
  6  2  1  0  0  0  0
  6 10  1  0  0  0  0
  7  2  1  0  0  0  0
  9  6  1  0  0  0  0
  9 13  1  0  0  0  0
  9 12  1  0  0  0  0
 11  6  1  0  0  0  0
 14  9  1  0  0  0  0
M  END
$$$$
