butane_opt
 OpenBabel08242015413D

 14 13  0  0  0  0  0  0  0  0999 V2000
   -3.9454    0.2421   -0.0184 C   0  0  0  0  0  0  0  0  0  0  0  0
   -2.7106   -0.6058    0.0945 C   0  0  0  0  0  0  0  0  0  0  0  0
   -4.8435   -0.2895   -0.0934 H   0  0  0  0  0  0  0  0  0  0  0  0
   -3.9447    0.8911   -0.9716 H   0  0  0  0  0  0  0  0  0  0  0  0
   -4.0303    0.8893    0.8381 H   0  0  0  0  0  0  0  0  0  0  0  0
   -1.3959    0.2071    0.0279 C   0  0  0  0  0  0  0  0  0  0  0  0
   -2.7686   -1.1819   -0.6741 H   0  0  0  0  0  0  0  0  0  0  0  0
   -2.7650   -1.3538    1.0786 H   0  0  0  0  0  0  0  0  0  0  0  0
   -0.1405   -0.7102    0.0015 C   0  0  0  0  0  0  0  0  0  0  0  0
   -1.3940    0.9731    0.9246 H   0  0  0  0  0  0  0  0  0  0  0  0
   -1.4661    0.8442   -0.8229 H   0  0  0  0  0  0  0  0  0  0  0  0
   -0.0940   -1.1553    0.7463 H   0  0  0  0  0  0  0  0  0  0  0  0
    0.6974   -0.1652    0.1241 H   0  0  0  0  0  0  0  0  0  0  0  0
   -0.0939   -1.5382   -1.0043 H   0  0  0  0  0  0  0  0  0  0  0  0
  1  2  1  0  0  0  0
  1  5  1  0  0  0  0
  2  8  1  0  0  0  0
  3  1  1  0  0  0  0
  4  1  1  0  0  0  0
  6  2  1  0  0  0  0
  6 10  1  0  0  0  0
  7  2  1  0  0  0  0
  9  6  1  0  0  0  0
  9 13  1  0  0  0  0
  9 12  1  0  0  0  0
 11  6  1  0  0  0  0
 14  9  1  0  0  0  0
M  END
$$$$
