butane_opt
 OpenBabel08242015413D

 14 13  0  0  0  0  0  0  0  0999 V2000
   -3.9576    0.2827   -0.0327 C   0  0  0  0  0  0  0  0  0  0  0  0
   -2.7027   -0.6248    0.0675 C   0  0  0  0  0  0  0  0  0  0  0  0
   -4.7901   -0.2964    0.2024 H   0  0  0  0  0  0  0  0  0  0  0  0
   -4.0260    1.0118   -0.9967 H   0  0  0  0  0  0  0  0  0  0  0  0
   -3.8492    0.7903    0.7191 H   0  0  0  0  0  0  0  0  0  0  0  0
   -1.4053    0.1657    0.0611 C   0  0  0  0  0  0  0  0  0  0  0  0
   -2.6651   -1.2304   -0.6666 H   0  0  0  0  0  0  0  0  0  0  0  0
   -2.7335   -1.3121    1.0022 H   0  0  0  0  0  0  0  0  0  0  0  0
   -0.1586   -0.6920   -0.0114 C   0  0  0  0  0  0  0  0  0  0  0  0
   -1.3322    0.8883    0.9467 H   0  0  0  0  0  0  0  0  0  0  0  0
   -1.3840    0.7284   -0.7786 H   0  0  0  0  0  0  0  0  0  0  0  0
   -0.1691   -1.1266    0.8023 H   0  0  0  0  0  0  0  0  0  0  0  0
    0.8193   -0.0324    0.1082 H   0  0  0  0  0  0  0  0  0  0  0  0
   -0.2198   -1.4526   -0.9424 H   0  0  0  0  0  0  0  0  0  0  0  0
  1  2  1  0  0  0  0
  1  3  1  0  0  0  0
  1  5  1  0  0  0  0
  2  8  1  0  0  0  0
  4  1  1  0  0  0  0
  6  2  1  0  0  0  0
  6 10  1  0  0  0  0
  7  2  1  0  0  0  0
  9  6  1  0  0  0  0
  9 13  1  0  0  0  0
  9 12  1  0  0  0  0
 11  6  1  0  0  0  0
 14  9  1  0  0  0  0
M  END
$$$$
