butane_opt
 OpenBabel08242015413D

 14 13  0  0  0  0  0  0  0  0999 V2000
   -3.9426    0.2770    0.0842 C   0  0  0  0  0  0  0  0  0  0  0  0
   -2.6993   -0.6130   -0.0305 C   0  0  0  0  0  0  0  0  0  0  0  0
   -4.8842   -0.3784    0.2059 H   0  0  0  0  0  0  0  0  0  0  0  0
   -4.1054    0.9943   -0.8489 H   0  0  0  0  0  0  0  0  0  0  0  0
   -3.8763    0.8258    0.8524 H   0  0  0  0  0  0  0  0  0  0  0  0
   -1.3954    0.1692   -0.0468 C   0  0  0  0  0  0  0  0  0  0  0  0
   -2.8078   -1.3866   -0.9603 H   0  0  0  0  0  0  0  0  0  0  0  0
   -2.5620   -1.1503    0.7906 H   0  0  0  0  0  0  0  0  0  0  0  0
   -0.1737   -0.6920    0.0906 C   0  0  0  0  0  0  0  0  0  0  0  0
   -1.4029    0.8043    0.7782 H   0  0  0  0  0  0  0  0  0  0  0  0
   -1.2584    0.8407   -0.9390 H   0  0  0  0  0  0  0  0  0  0  0  0
   -0.2451   -1.2895    0.9499 H   0  0  0  0  0  0  0  0  0  0  0  0
    0.7492   -0.1244    0.1418 H   0  0  0  0  0  0  0  0  0  0  0  0
   -0.0833   -1.3057   -0.7254 H   0  0  0  0  0  0  0  0  0  0  0  0
  1  3  1  0  0  0  0
  1  5  1  0  0  0  0
  2  1  1  0  0  0  0
  2  8  1  0  0  0  0
  4  1  1  0  0  0  0
  6  2  1  0  0  0  0
  6  9  1  0  0  0  0
  6 10  1  0  0  0  0
  7  2  1  0  0  0  0
  9 13  1  0  0  0  0
  9 12  1  0  0  0  0
 11  6  1  0  0  0  0
 14  9  1  0  0  0  0
M  END
$$$$
