14
butane_opt
C  -3.950953   0.262761   0.042269
C  -2.709470  -0.619499   0.009292
H  -4.803658  -0.283276  -0.113367
H  -3.905104   0.637995  -0.675031
H  -4.004332   1.169719   1.096504
C  -1.402134   0.195287  -0.019954
H  -2.789305  -1.352964  -0.923485
H  -2.787010  -1.242422   0.938970
C  -0.145324  -0.696938   0.063247
H  -1.438795   0.718334   0.736096
H  -1.367990   0.957343  -0.981613
H  -0.080284  -1.426375   1.062209
H   0.722642  -0.137918  -0.071478
H  -0.084851  -1.208983  -0.727047
