14
butane_opt
C  -3.939413   0.258248   0.004497
C  -2.684786  -0.624407   0.031810
H  -4.837946  -0.317401   0.134704
H  -4.027571   0.993051  -0.954941
H  -3.866017   0.939598   0.806763
C  -1.408908   0.188483   0.042136
H  -2.701099  -1.343112  -0.835882
H  -2.767010  -1.235269   0.929828
C  -0.168066  -0.693621   0.021178
H  -1.339642   0.894227   0.933453
H  -1.480521   0.800492  -0.851280
H  -0.081072  -1.363880   0.950763
H   0.754038  -0.094442  -0.063358
H  -0.263502  -1.280471  -0.793171
