14
butane_opt
C  -3.942554   0.277009   0.084240
C  -2.699334  -0.612995  -0.030464
H  -4.884186  -0.378432   0.205901
H  -4.105375   0.994332  -0.848896
H  -3.876306   0.825840   0.852353
C  -1.395401   0.169212  -0.046787
H  -2.807787  -1.386574  -0.960337
H  -2.561999  -1.150316   0.790621
C  -0.173742  -0.691979   0.090573
H  -1.402889   0.804345   0.778193
H  -1.258368   0.840658  -0.939032
H  -0.245070  -1.289461   0.949937
H   0.749232  -0.124404   0.141793
H  -0.083311  -1.305663  -0.725389
