14
butane_opt
C  -3.952440   0.281515   0.079715
C  -2.713527  -0.648350  -0.036006
H  -4.790102  -0.206379   0.273140
H  -4.153397   0.995023  -0.846116
H  -3.925681   0.862898   0.878947
C  -1.391438   0.165087  -0.030147
H  -2.718107  -1.441695  -1.014222
H  -2.729263  -1.167134   0.782927
C  -0.149006  -0.666640   0.082526
H  -1.389493   0.810589   0.794713
H  -1.346203   0.875466  -0.993393
H  -0.180590  -1.395229   1.067533
H   0.774530  -0.105683   0.127700
H  -0.103146  -1.268712  -0.768006
