butane_opt
 OpenBabel08242015413D

 14 13  0  0  0  0  0  0  0  0999 V2000
   -3.9410    0.2637    0.0006 C   0  0  0  0  0  0  0  0  0  0  0  0
   -2.6993   -0.6118    0.0465 C   0  0  0  0  0  0  0  0  0  0  0  0
   -4.8857   -0.3699    0.1237 H   0  0  0  0  0  0  0  0  0  0  0  0
   -3.9894    0.9691   -0.9790 H   0  0  0  0  0  0  0  0  0  0  0  0
   -3.8856    0.8231    0.7769 H   0  0  0  0  0  0  0  0  0  0  0  0
   -1.4108    0.1879    0.0343 C   0  0  0  0  0  0  0  0  0  0  0  0
   -2.7144   -1.2849   -0.7970 H   0  0  0  0  0  0  0  0  0  0  0  0
   -2.6709   -1.2596    0.9618 H   0  0  0  0  0  0  0  0  0  0  0  0
   -0.1662   -0.6934    0.0141 C   0  0  0  0  0  0  0  0  0  0  0  0
   -1.3784    0.9647    0.9415 H   0  0  0  0  0  0  0  0  0  0  0  0
   -1.4431    0.7653   -0.8001 H   0  0  0  0  0  0  0  0  0  0  0  0
   -0.0898   -1.3342    0.9172 H   0  0  0  0  0  0  0  0  0  0  0  0
    0.7754   -0.1008   -0.0017 H   0  0  0  0  0  0  0  0  0  0  0  0
   -0.1380   -1.3979   -0.8640 H   0  0  0  0  0  0  0  0  0  0  0  0
  1  2  1  0  0  0  0
  1  3  1  0  0  0  0
  1  5  1  0  0  0  0
  2  8  1  0  0  0  0
  4  1  1  0  0  0  0
  6  2  1  0  0  0  0
  6 10  1  0  0  0  0
  7  2  1  0  0  0  0
  9  6  1  0  0  0  0
  9 12  1  0  0  0  0
 11  6  1  0  0  0  0
 13  9  1  0  0  0  0
 14  9  1  0  0  0  0
M  END
$$$$
