butane_opt
 OpenBabel08242015413D

 14 13  0  0  0  0  0  0  0  0999 V2000
   -3.9396    0.2418    0.0721 C   0  0  0  0  0  0  0  0  0  0  0  0
   -2.7269   -0.6090   -0.0154 C   0  0  0  0  0  0  0  0  0  0  0  0
   -4.8117   -0.3354    0.1072 H   0  0  0  0  0  0  0  0  0  0  0  0
   -4.1219    0.8506   -0.7896 H   0  0  0  0  0  0  0  0  0  0  0  0
   -3.8279    0.9766    0.9675 H   0  0  0  0  0  0  0  0  0  0  0  0
   -1.4165    0.2202   -0.0568 C   0  0  0  0  0  0  0  0  0  0  0  0
   -2.7231   -1.2341   -0.8686 H   0  0  0  0  0  0  0  0  0  0  0  0
   -2.7304   -1.2828    0.9064 H   0  0  0  0  0  0  0  0  0  0  0  0
   -0.1245   -0.7057    0.0785 C   0  0  0  0  0  0  0  0  0  0  0  0
   -1.5060    0.8145    0.7189 H   0  0  0  0  0  0  0  0  0  0  0  0
   -1.3279    0.8571   -0.9585 H   0  0  0  0  0  0  0  0  0  0  0  0
   -0.2334   -1.2863    0.9749 H   0  0  0  0  0  0  0  0  0  0  0  0
    0.7005   -0.1468    0.2642 H   0  0  0  0  0  0  0  0  0  0  0  0
    0.0573   -1.4638   -0.8348 H   0  0  0  0  0  0  0  0  0  0  0  0
  1  3  1  0  0  0  0
  1  5  1  0  0  0  0
  2  1  1  0  0  0  0
  2  8  1  0  0  0  0
  4  1  1  0  0  0  0
  6  2  1  0  0  0  0
  6  9  1  0  0  0  0
  6 10  1  0  0  0  0
  7  2  1  0  0  0  0
  9 13  1  0  0  0  0
  9 12  1  0  0  0  0
 11  6  1  0  0  0  0
 14  9  1  0  0  0  0
M  END
$$$$
