butane_opt
 OpenBabel08242015413D

 14 13  0  0  0  0  0  0  0  0999 V2000
   -3.9747    0.2711   -0.0325 C   0  0  0  0  0  0  0  0  0  0  0  0
   -2.7098   -0.6199    0.0949 C   0  0  0  0  0  0  0  0  0  0  0  0
   -4.8996   -0.3511   -0.0442 H   0  0  0  0  0  0  0  0  0  0  0  0
   -3.8851    0.7883   -0.8656 H   0  0  0  0  0  0  0  0  0  0  0  0
   -4.0309    0.9513    0.8601 H   0  0  0  0  0  0  0  0  0  0  0  0
   -1.3914    0.1835    0.0540 C   0  0  0  0  0  0  0  0  0  0  0  0
   -2.7003   -1.2754   -0.7678 H   0  0  0  0  0  0  0  0  0  0  0  0
   -2.7010   -1.1963    0.9226 H   0  0  0  0  0  0  0  0  0  0  0  0
   -0.1329   -0.6936   -0.0051 C   0  0  0  0  0  0  0  0  0  0  0  0
   -1.3429    0.8515    0.8884 H   0  0  0  0  0  0  0  0  0  0  0  0
   -1.4356    0.8602   -0.8367 H   0  0  0  0  0  0  0  0  0  0  0  0
   -0.0477   -1.3158    0.9183 H   0  0  0  0  0  0  0  0  0  0  0  0
    0.7203   -0.1376   -0.1014 H   0  0  0  0  0  0  0  0  0  0  0  0
   -0.1931   -1.3558   -0.8588 H   0  0  0  0  0  0  0  0  0  0  0  0
  1  2  1  0  0  0  0
  1  5  1  0  0  0  0
  2  8  1  0  0  0  0
  3  1  1  0  0  0  0
  4  1  1  0  0  0  0
  6  2  1  0  0  0  0
  6 10  1  0  0  0  0
  7  2  1  0  0  0  0
  9  6  1  0  0  0  0
  9 12  1  0  0  0  0
 11  6  1  0  0  0  0
 13  9  1  0  0  0  0
 14  9  1  0  0  0  0
M  END
$$$$
