butane_opt
 OpenBabel08242015413D

 14 13  0  0  0  0  0  0  0  0999 V2000
   -3.9510    0.2628    0.0423 C   0  0  0  0  0  0  0  0  0  0  0  0
   -2.7095   -0.6195    0.0093 C   0  0  0  0  0  0  0  0  0  0  0  0
   -4.8037   -0.2833   -0.1134 H   0  0  0  0  0  0  0  0  0  0  0  0
   -3.9051    0.6380   -0.6750 H   0  0  0  0  0  0  0  0  0  0  0  0
   -4.0043    1.1697    1.0965 H   0  0  0  0  0  0  0  0  0  0  0  0
   -1.4021    0.1953   -0.0200 C   0  0  0  0  0  0  0  0  0  0  0  0
   -2.7893   -1.3530   -0.9235 H   0  0  0  0  0  0  0  0  0  0  0  0
   -2.7870   -1.2424    0.9390 H   0  0  0  0  0  0  0  0  0  0  0  0
   -0.1453   -0.6969    0.0632 C   0  0  0  0  0  0  0  0  0  0  0  0
   -1.4388    0.7183    0.7361 H   0  0  0  0  0  0  0  0  0  0  0  0
   -1.3680    0.9573   -0.9816 H   0  0  0  0  0  0  0  0  0  0  0  0
   -0.0803   -1.4264    1.0622 H   0  0  0  0  0  0  0  0  0  0  0  0
    0.7226   -0.1379   -0.0715 H   0  0  0  0  0  0  0  0  0  0  0  0
   -0.0849   -1.2090   -0.7270 H   0  0  0  0  0  0  0  0  0  0  0  0
  1  5  1  0  0  0  0
  2  1  1  0  0  0  0
  2  8  1  0  0  0  0
  3  1  1  0  0  0  0
  4  1  1  0  0  0  0
  6  2  1  0  0  0  0
  6  9  1  0  0  0  0
  6 10  1  0  0  0  0
  7  2  1  0  0  0  0
  9 12  1  0  0  0  0
 11  6  1  0  0  0  0
 13  9  1  0  0  0  0
 14  9  1  0  0  0  0
M  END
$$$$
