14
butane_opt
C  -3.917324   0.247835   0.062084
C  -2.702699  -0.585835   0.002165
H  -4.879080  -0.414095  -0.069734
H  -3.897373   0.718828  -0.782550
H  -3.900908   1.021388   1.004839
C  -1.433775   0.195706  -0.027321
H  -2.774743  -1.360320  -0.920446
H  -2.739224  -1.077259   0.762883
C  -0.141367  -0.712045   0.072605
H  -1.468083   0.854081   0.804628
H  -1.467445   0.840158  -0.946239
H  -0.100899  -1.520569   1.120393
H   0.753542  -0.146611  -0.187693
H  -0.201377  -1.136452  -0.622940
