14
butane_opt
C  -3.928616   0.252297   0.058382
C  -2.708299  -0.593599  -0.020394
H  -4.906121  -0.389532  -0.006766
H  -3.895078   0.782093  -0.786027
H  -3.922053   1.006546   0.959196
C  -1.400265   0.192460   0.000958
H  -2.776769  -1.322934  -0.902573
H  -2.711591  -1.140135   0.836007
C  -0.167268  -0.717607   0.071690
H  -1.498887   0.883280   0.822170
H  -1.377453   0.914220  -0.945195
H  -0.061341  -1.548923   1.087701
H   0.794598  -0.098144  -0.238980
H  -0.212734  -1.168531  -0.688532
