butane_opt
 OpenBabel08242015413D

 14 13  0  0  0  0  0  0  0  0999 V2000
   -3.9536    0.2389   -0.0131 C   0  0  0  0  0  0  0  0  0  0  0  0
   -2.7257   -0.5949    0.0523 C   0  0  0  0  0  0  0  0  0  0  0  0
   -4.8801   -0.3842    0.2199 H   0  0  0  0  0  0  0  0  0  0  0  0
   -3.9468    1.0615   -1.0276 H   0  0  0  0  0  0  0  0  0  0  0  0
   -3.9740    0.7376    0.7025 H   0  0  0  0  0  0  0  0  0  0  0  0
   -1.3909    0.2218    0.0646 C   0  0  0  0  0  0  0  0  0  0  0  0
   -2.7097   -1.2216   -0.7809 H   0  0  0  0  0  0  0  0  0  0  0  0
   -2.7062   -1.2323    0.9748 H   0  0  0  0  0  0  0  0  0  0  0  0
   -0.1506   -0.7282    0.0057 C   0  0  0  0  0  0  0  0  0  0  0  0
   -1.3420    0.8575    0.9352 H   0  0  0  0  0  0  0  0  0  0  0  0
   -1.3959    0.8726   -0.8104 H   0  0  0  0  0  0  0  0  0  0  0  0
    0.0213   -1.1523    0.7697 H   0  0  0  0  0  0  0  0  0  0  0  0
    0.6851   -0.1683    0.0363 H   0  0  0  0  0  0  0  0  0  0  0  0
   -0.1070   -1.5094   -0.9231 H   0  0  0  0  0  0  0  0  0  0  0  0
  1  2  1  0  0  0  0
  1  3  1  0  0  0  0
  1  5  1  0  0  0  0
  2  6  1  0  0  0  0
  2  8  1  0  0  0  0
  4  1  1  0  0  0  0
  6 10  1  0  0  0  0
  7  2  1  0  0  0  0
  9 13  1  0  0  0  0
  9  6  1  0  0  0  0
  9 12  1  0  0  0  0
 11  6  1  0  0  0  0
 14  9  1  0  0  0  0
M  END
$$$$
