14
butane_opt
C  -3.953570   0.238946  -0.013140
C  -2.725660  -0.594897   0.052291
H  -4.880141  -0.384238   0.219889
H  -3.946796   1.061463  -1.027588
H  -3.973988   0.737591   0.702469
C  -1.390944   0.221816   0.064611
H  -2.709746  -1.221629  -0.780947
H  -2.706249  -1.232267   0.974787
C  -0.150633  -0.728215   0.005705
H  -1.342023   0.857537   0.935192
H  -1.395861   0.872593  -0.810433
H   0.021327  -1.152267   0.769728
H   0.685118  -0.168263   0.036254
H  -0.107040  -1.509356  -0.923146
