butane_opt
 OpenBabel08242015413D

 14 13  0  0  0  0  0  0  0  0999 V2000
   -3.9286    0.2523    0.0584 C   0  0  0  0  0  0  0  0  0  0  0  0
   -2.7083   -0.5936   -0.0204 C   0  0  0  0  0  0  0  0  0  0  0  0
   -4.9061   -0.3895   -0.0068 H   0  0  0  0  0  0  0  0  0  0  0  0
   -3.8951    0.7821   -0.7860 H   0  0  0  0  0  0  0  0  0  0  0  0
   -3.9221    1.0065    0.9592 H   0  0  0  0  0  0  0  0  0  0  0  0
   -1.4003    0.1925    0.0010 C   0  0  0  0  0  0  0  0  0  0  0  0
   -2.7768   -1.3229   -0.9026 H   0  0  0  0  0  0  0  0  0  0  0  0
   -2.7116   -1.1401    0.8360 H   0  0  0  0  0  0  0  0  0  0  0  0
   -0.1673   -0.7176    0.0717 C   0  0  0  0  0  0  0  0  0  0  0  0
   -1.4989    0.8833    0.8222 H   0  0  0  0  0  0  0  0  0  0  0  0
   -1.3775    0.9142   -0.9452 H   0  0  0  0  0  0  0  0  0  0  0  0
   -0.0613   -1.5489    1.0877 H   0  0  0  0  0  0  0  0  0  0  0  0
    0.7946   -0.0981   -0.2390 H   0  0  0  0  0  0  0  0  0  0  0  0
   -0.2127   -1.1685   -0.6885 H   0  0  0  0  0  0  0  0  0  0  0  0
  1  5  1  0  0  0  0
  2  6  1  0  0  0  0
  2  1  1  0  0  0  0
  2  8  1  0  0  0  0
  3  1  1  0  0  0  0
  4  1  1  0  0  0  0
  6  9  1  0  0  0  0
  6 10  1  0  0  0  0
  7  2  1  0  0  0  0
  9 12  1  0  0  0  0
 11  6  1  0  0  0  0
 13  9  1  0  0  0  0
 14  9  1  0  0  0  0
M  END
$$$$
