14
butane_opt
C  -3.940537   0.279112   0.056189
C  -2.701798  -0.617473   0.002990
H  -4.849591  -0.363799   0.090337
H  -4.056926   0.929220  -0.847265
H  -3.860655   0.964389   0.958389
C  -1.401027   0.155013  -0.045588
H  -2.759036  -1.298607  -0.866914
H  -2.669544  -1.288366   0.884361
C  -0.156293  -0.676451   0.075739
H  -1.371281   0.854331   0.784021
H  -1.426152   0.795260  -0.934511
H  -0.315141  -1.261682   0.954441
H   0.761271  -0.079028   0.175536
H  -0.080851  -1.403841  -0.838064
