14
butane_opt
C  -3.947704   0.247616  -0.022407
C  -2.707398  -0.608052   0.070082
H  -4.890215  -0.396767   0.250713
H  -4.061488   1.081211  -1.077160
H  -3.922862   0.729298   0.657978
C  -1.411664   0.209084   0.064552
H  -2.723470  -1.252210  -0.743841
H  -2.807342  -1.200234   0.966695
C  -0.129943  -0.720510  -0.005412
H  -1.373097   0.998006   0.956942
H  -1.418351   0.839230  -0.785865
H  -0.062700  -1.211186   0.810389
H   0.764847  -0.101638   0.073205
H  -0.151668  -1.515965  -0.980253
