butane_opt
 OpenBabel08242015413D

 14 13  0  0  0  0  0  0  0  0999 V2000
   -3.9621    0.2435   -0.0051 C   0  0  0  0  0  0  0  0  0  0  0  0
   -2.7079   -0.5987    0.0895 C   0  0  0  0  0  0  0  0  0  0  0  0
   -4.8683   -0.3990   -0.1097 H   0  0  0  0  0  0  0  0  0  0  0  0
   -3.8159    0.7733   -0.8759 H   0  0  0  0  0  0  0  0  0  0  0  0
   -4.1342    1.0042    0.9020 H   0  0  0  0  0  0  0  0  0  0  0  0
   -1.4164    0.2281    0.0115 C   0  0  0  0  0  0  0  0  0  0  0  0
   -2.7144   -1.2679   -0.7667 H   0  0  0  0  0  0  0  0  0  0  0  0
   -2.7693   -1.2179    1.0283 H   0  0  0  0  0  0  0  0  0  0  0  0
   -0.1154   -0.7173    0.0166 C   0  0  0  0  0  0  0  0  0  0  0  0
   -1.3895    0.8663    0.8207 H   0  0  0  0  0  0  0  0  0  0  0  0
   -1.3999    0.7768   -0.8339 H   0  0  0  0  0  0  0  0  0  0  0  0
   -0.1018   -1.3044    0.8619 H   0  0  0  0  0  0  0  0  0  0  0  0
    0.7672   -0.1495   -0.0013 H   0  0  0  0  0  0  0  0  0  0  0  0
   -0.1527   -1.4335   -0.9219 H   0  0  0  0  0  0  0  0  0  0  0  0
  1  2  1  0  0  0  0
  1  5  1  0  0  0  0
  2  8  1  0  0  0  0
  3  1  1  0  0  0  0
  4  1  1  0  0  0  0
  6  9  1  0  0  0  0
  6  2  1  0  0  0  0
  6 10  1  0  0  0  0
  7  2  1  0  0  0  0
  9 12  1  0  0  0  0
 11  6  1  0  0  0  0
 13  9  1  0  0  0  0
 14  9  1  0  0  0  0
M  END
$$$$
