14
butane_opt
C  -3.973982   0.285943   0.032016
C  -2.711387  -0.624822   0.034573
H  -4.839106  -0.241651   0.092233
H  -3.978250   0.788608  -0.798604
H  -3.973233   0.995058   0.931659
C  -1.390531   0.152837  -0.039698
H  -2.698976  -1.325077  -0.849913
H  -2.695930  -1.276600   0.957372
C  -0.156801  -0.671912   0.050349
H  -1.330595   0.830804   0.843261
H  -1.264312   0.811232  -0.929662
H  -0.243997  -1.262234   0.929980
H   0.793076  -0.095490   0.193738
H  -0.017071  -1.394368  -0.851106
