butane_opt
 OpenBabel08242015413D

 14 13  0  0  0  0  0  0  0  0999 V2000
   -3.9248    0.2454    0.0337 C   0  0  0  0  0  0  0  0  0  0  0  0
   -2.7047   -0.5737    0.0099 C   0  0  0  0  0  0  0  0  0  0  0  0
   -4.8424   -0.3409    0.1133 H   0  0  0  0  0  0  0  0  0  0  0  0
   -3.9798    0.8299   -0.8549 H   0  0  0  0  0  0  0  0  0  0  0  0
   -3.8380    0.8792    0.8475 H   0  0  0  0  0  0  0  0  0  0  0  0
   -1.4149    0.1946    0.0044 C   0  0  0  0  0  0  0  0  0  0  0  0
   -2.7761   -1.2297   -0.8388 H   0  0  0  0  0  0  0  0  0  0  0  0
   -2.6738   -1.2211    0.9171 H   0  0  0  0  0  0  0  0  0  0  0  0
   -0.1728   -0.7232    0.0399 C   0  0  0  0  0  0  0  0  0  0  0  0
   -1.3720    0.8593    0.8512 H   0  0  0  0  0  0  0  0  0  0  0  0
   -1.4069    0.7667   -0.8944 H   0  0  0  0  0  0  0  0  0  0  0  0
   -0.2438   -1.3410    0.9579 H   0  0  0  0  0  0  0  0  0  0  0  0
    0.7677   -0.0476    0.0309 H   0  0  0  0  0  0  0  0  0  0  0  0
   -0.0497   -1.3400   -0.7506 H   0  0  0  0  0  0  0  0  0  0  0  0
  1  3  1  0  0  0  0
  1  5  1  0  0  0  0
  2  1  1  0  0  0  0
  2  8  1  0  0  0  0
  4  1  1  0  0  0  0
  6  2  1  0  0  0  0
  6  9  1  0  0  0  0
  6 10  1  0  0  0  0
  7  2  1  0  0  0  0
  9 12  1  0  0  0  0
 11  6  1  0  0  0  0
 13  9  1  0  0  0  0
 14  9  1  0  0  0  0
M  END
$$$$
