14
butane_opt
C  -3.940271   0.280209   0.004691
C  -2.705000  -0.619941   0.050446
H  -4.832377  -0.340531   0.030933
H  -3.884498   0.912785  -0.929850
H  -3.953484   0.825554   0.778821
C  -1.402189   0.182949   0.041202
H  -2.713559  -1.312771  -0.799884
H  -2.608145  -1.223024   0.916214
C  -0.183677  -0.698891   0.012230
H  -1.330661   0.839042   0.930087
H  -1.402760   0.800795  -0.819132
H  -0.141442  -1.284691   0.931734
H   0.775617  -0.075233  -0.087566
H  -0.170231  -1.334920  -0.831764
