butane_opt
 OpenBabel08242015413D

 14 13  0  0  0  0  0  0  0  0999 V2000
   -3.9508    0.2597    0.0504 C   0  0  0  0  0  0  0  0  0  0  0  0
   -2.7036   -0.6124   -0.0080 C   0  0  0  0  0  0  0  0  0  0  0  0
   -4.8973   -0.3817    0.1745 H   0  0  0  0  0  0  0  0  0  0  0  0
   -4.0687    0.9163   -0.8560 H   0  0  0  0  0  0  0  0  0  0  0  0
   -3.8924    0.8733    0.8960 H   0  0  0  0  0  0  0  0  0  0  0  0
   -1.3984    0.1967   -0.0211 C   0  0  0  0  0  0  0  0  0  0  0  0
   -2.7689   -1.3162   -0.8861 H   0  0  0  0  0  0  0  0  0  0  0  0
   -2.6457   -1.1548    0.8267 H   0  0  0  0  0  0  0  0  0  0  0  0
   -0.1521   -0.7016    0.0667 C   0  0  0  0  0  0  0  0  0  0  0  0
   -1.4260    0.8543    0.8405 H   0  0  0  0  0  0  0  0  0  0  0  0
   -1.3963    0.8456   -0.9158 H   0  0  0  0  0  0  0  0  0  0  0  0
   -0.1283   -1.3705    1.0112 H   0  0  0  0  0  0  0  0  0  0  0  0
    0.7567   -0.1188    0.0591 H   0  0  0  0  0  0  0  0  0  0  0  0
   -0.0925   -1.3337   -0.7693 H   0  0  0  0  0  0  0  0  0  0  0  0
  1  3  1  0  0  0  0
  1  5  1  0  0  0  0
  2  1  1  0  0  0  0
  2  8  1  0  0  0  0
  4  1  1  0  0  0  0
  6  2  1  0  0  0  0
  6  9  1  0  0  0  0
  6 10  1  0  0  0  0
  7  2  1  0  0  0  0
  9 12  1  0  0  0  0
 11  6  1  0  0  0  0
 13  9  1  0  0  0  0
 14  9  1  0  0  0  0
M  END
$$$$
