14
butane_opt
C  -3.948340   0.260407  -0.004718
C  -2.709566  -0.612705   0.042611
H  -4.885307  -0.419470   0.232578
H  -4.066585   1.086173  -1.011185
H  -3.908657   0.795779   0.790524
C  -1.394716   0.202481   0.031056
H  -2.695419  -1.239601  -0.820059
H  -2.664525  -1.319893   1.000287
C  -0.161235  -0.706870   0.022816
H  -1.349846   0.932712   0.926487
H  -1.370181   0.778297  -0.816655
H  -0.068728  -1.210131   0.815585
H   0.751698  -0.112882   0.136580
H  -0.179070  -1.488102  -0.939180
