butane_opt
 OpenBabel08242015413D

 14 13  0  0  0  0  0  0  0  0999 V2000
   -3.9532    0.2342    0.0174 C   0  0  0  0  0  0  0  0  0  0  0  0
   -2.7124   -0.5915    0.0318 C   0  0  0  0  0  0  0  0  0  0  0  0
   -4.8811   -0.4390   -0.0058 H   0  0  0  0  0  0  0  0  0  0  0  0
   -4.0143    0.8200   -0.8788 H   0  0  0  0  0  0  0  0  0  0  0  0
   -3.9876    1.0312    0.9265 H   0  0  0  0  0  0  0  0  0  0  0  0
   -1.4070    0.2158    0.0271 C   0  0  0  0  0  0  0  0  0  0  0  0
   -2.6921   -1.3457   -0.8876 H   0  0  0  0  0  0  0  0  0  0  0  0
   -2.6828   -1.1517    0.8681 H   0  0  0  0  0  0  0  0  0  0  0  0
   -0.1426   -0.7159    0.0325 C   0  0  0  0  0  0  0  0  0  0  0  0
   -1.3762    0.9246    0.8630 H   0  0  0  0  0  0  0  0  0  0  0  0
   -1.3954    0.8641   -0.8802 H   0  0  0  0  0  0  0  0  0  0  0  0
    0.0702   -1.5335    1.0494 H   0  0  0  0  0  0  0  0  0  0  0  0
    0.7332   -0.1703   -0.1868 H   0  0  0  0  0  0  0  0  0  0  0  0
   -0.1884   -1.1952   -0.6982 H   0  0  0  0  0  0  0  0  0  0  0  0
  1  2  1  0  0  0  0
  1  5  1  0  0  0  0
  2  8  1  0  0  0  0
  3  1  1  0  0  0  0
  4  1  1  0  0  0  0
  6  2  1  0  0  0  0
  6  9  1  0  0  0  0
  6 10  1  0  0  0  0
  7  2  1  0  0  0  0
  9 12  1  0  0  0  0
 11  6  1  0  0  0  0
 13  9  1  0  0  0  0
 14  9  1  0  0  0  0
M  END
$$$$
