14
butane_opt
C  -3.932849   0.245759  -0.022352
C  -2.710767  -0.568099   0.092668
H  -4.865710  -0.379366  -0.033685
H  -3.769098   0.840120  -0.910957
H  -3.954441   0.912536   0.844949
C  -1.419483   0.191322   0.025237
H  -2.744241  -1.223805  -0.712715
H  -2.726150  -1.326435   1.108306
C  -0.160731  -0.713007  -0.011196
H  -1.372616   0.903406   0.938750
H  -1.393713   0.770389  -0.831036
H  -0.197757  -1.187491   0.815784
H   0.763428  -0.166237   0.134155
H  -0.075115  -1.487742  -0.944573
