14
butane_opt
C  -3.910294   0.264007   0.050984
C  -2.717852  -0.590557   0.016049
H  -4.923729  -0.412118  -0.179488
H  -3.876263   0.654388  -0.690275
H  -3.965702   1.112992   1.078084
C  -1.413886   0.194508  -0.036117
H  -2.727104  -1.324008  -0.856937
H  -2.644096  -1.278640   0.920075
C  -0.169853  -0.710528   0.068700
H  -1.482228   0.740874   0.751197
H  -1.321734   0.940777  -1.011022
H  -0.124420  -1.404099   1.003971
H   0.764519  -0.068393   0.028619
H  -0.174151  -1.329092  -0.779151
