14
butane_opt
C  -3.953156   0.234249   0.017405
C  -2.712411  -0.591466   0.031803
H  -4.881083  -0.438956  -0.005803
H  -4.014341   0.819961  -0.878783
H  -3.987639   1.031159   0.926455
C  -1.407019   0.215818   0.027062
H  -2.692118  -1.345713  -0.887640
H  -2.682787  -1.151748   0.868095
C  -0.142613  -0.715867   0.032530
H  -1.376249   0.924626   0.863048
H  -1.395387   0.864129  -0.880223
H   0.070173  -1.533503   1.049422
H   0.733224  -0.170309  -0.186763
H  -0.188422  -1.195201  -0.698216
