butane_opt
 OpenBabel08242015413D

 14 13  0  0  0  0  0  0  0  0999 V2000
   -3.9367    0.2806    0.0413 C   0  0  0  0  0  0  0  0  0  0  0  0
   -2.6957   -0.6243    0.0199 C   0  0  0  0  0  0  0  0  0  0  0  0
   -4.8644   -0.2892    0.1118 H   0  0  0  0  0  0  0  0  0  0  0  0
   -3.9990    0.9158   -0.8722 H   0  0  0  0  0  0  0  0  0  0  0  0
   -3.9136    0.9011    0.8835 H   0  0  0  0  0  0  0  0  0  0  0  0
   -1.4087    0.1668   -0.0149 C   0  0  0  0  0  0  0  0  0  0  0  0
   -2.7287   -1.3615   -0.8575 H   0  0  0  0  0  0  0  0  0  0  0  0
   -2.6814   -1.2283    0.9006 H   0  0  0  0  0  0  0  0  0  0  0  0
   -0.1644   -0.6848    0.0505 C   0  0  0  0  0  0  0  0  0  0  0  0
   -1.4069    0.8127    0.7922 H   0  0  0  0  0  0  0  0  0  0  0  0
   -1.3409    0.7955   -0.9071 H   0  0  0  0  0  0  0  0  0  0  0  0
   -0.3024   -1.2521    0.9202 H   0  0  0  0  0  0  0  0  0  0  0  0
    0.7777   -0.0595    0.1193 H   0  0  0  0  0  0  0  0  0  0  0  0
   -0.1009   -1.3595   -0.8237 H   0  0  0  0  0  0  0  0  0  0  0  0
  1  3  1  0  0  0  0
  1  5  1  0  0  0  0
  2  1  1  0  0  0  0
  2  8  1  0  0  0  0
  4  1  1  0  0  0  0
  6  2  1  0  0  0  0
  6  9  1  0  0  0  0
  6 10  1  0  0  0  0
  7  2  1  0  0  0  0
  9 13  1  0  0  0  0
  9 12  1  0  0  0  0
 11  6  1  0  0  0  0
 14  9  1  0  0  0  0
M  END
$$$$
