14
butane_opt
C  -3.964931   0.281359  -0.048733
C  -2.689955  -0.626664   0.134931
H  -4.876148  -0.286593  -0.232118
H  -3.906817   0.757721  -0.845589
H  -4.172343   1.042074   0.795295
C  -1.386494   0.158837   0.049371
H  -2.618081  -1.242911  -0.643814
H  -2.623396  -1.342829   1.043495
C  -0.168754  -0.673168  -0.037355
H  -1.249626   0.870793   0.960517
H  -1.465821   0.720240  -0.752078
H  -0.126961  -1.289398   0.845703
H   0.764441  -0.037575   0.016481
H  -0.226907  -1.352600  -0.911973
