butane_opt
 OpenBabel08242015413D

 14 13  0  0  0  0  0  0  0  0999 V2000
   -3.9273    0.2573    0.0373 C   0  0  0  0  0  0  0  0  0  0  0  0
   -2.7107   -0.5935    0.0425 C   0  0  0  0  0  0  0  0  0  0  0  0
   -4.9393   -0.4210   -0.1770 H   0  0  0  0  0  0  0  0  0  0  0  0
   -3.8770    0.6039   -0.6942 H   0  0  0  0  0  0  0  0  0  0  0  0
   -3.9902    1.0953    0.9931 H   0  0  0  0  0  0  0  0  0  0  0  0
   -1.4201    0.2067   -0.0250 C   0  0  0  0  0  0  0  0  0  0  0  0
   -2.6045   -1.3200   -0.8894 H   0  0  0  0  0  0  0  0  0  0  0  0
   -2.7140   -1.2287    0.9366 H   0  0  0  0  0  0  0  0  0  0  0  0
   -0.1558   -0.7079    0.0643 C   0  0  0  0  0  0  0  0  0  0  0  0
   -1.4422    0.7556    0.7424 H   0  0  0  0  0  0  0  0  0  0  0  0
   -1.4089    0.9124   -0.9784 H   0  0  0  0  0  0  0  0  0  0  0  0
   -0.1007   -1.3264    0.9768 H   0  0  0  0  0  0  0  0  0  0  0  0
    0.7520   -0.1621   -0.0920 H   0  0  0  0  0  0  0  0  0  0  0  0
   -0.1176   -1.3481   -0.7809 H   0  0  0  0  0  0  0  0  0  0  0  0
  1  2  1  0  0  0  0
  1  5  1  0  0  0  0
  2  8  1  0  0  0  0
  3  1  1  0  0  0  0
  4  1  1  0  0  0  0
  6  2  1  0  0  0  0
  6  9  1  0  0  0  0
  6 10  1  0  0  0  0
  7  2  1  0  0  0  0
  9 12  1  0  0  0  0
 11  6  1  0  0  0  0
 13  9  1  0  0  0  0
 14  9  1  0  0  0  0
M  END
$$$$
