butane_opt
 OpenBabel08242015413D

 14 13  0  0  0  0  0  0  0  0999 V2000
   -3.9175    0.2447    0.0363 C   0  0  0  0  0  0  0  0  0  0  0  0
   -2.7053   -0.5840    0.0309 C   0  0  0  0  0  0  0  0  0  0  0  0
   -4.8037   -0.3327    0.0768 H   0  0  0  0  0  0  0  0  0  0  0  0
   -3.8925    0.8217   -0.8325 H   0  0  0  0  0  0  0  0  0  0  0  0
   -3.9812    0.8681    0.8679 H   0  0  0  0  0  0  0  0  0  0  0  0
   -1.4123    0.2055   -0.0314 C   0  0  0  0  0  0  0  0  0  0  0  0
   -2.8267   -1.2183   -0.7615 H   0  0  0  0  0  0  0  0  0  0  0  0
   -2.7593   -1.2526    0.9285 H   0  0  0  0  0  0  0  0  0  0  0  0
   -0.1579   -0.7081    0.0416 C   0  0  0  0  0  0  0  0  0  0  0  0
   -1.3760    0.8557    0.8301 H   0  0  0  0  0  0  0  0  0  0  0  0
   -1.4792    0.8438   -0.8867 H   0  0  0  0  0  0  0  0  0  0  0  0
   -0.2730   -1.2534    0.8849 H   0  0  0  0  0  0  0  0  0  0  0  0
    0.7205   -0.1651    0.2590 H   0  0  0  0  0  0  0  0  0  0  0  0
   -0.0332   -1.5400   -0.8597 H   0  0  0  0  0  0  0  0  0  0  0  0
  1  3  1  0  0  0  0
  1  5  1  0  0  0  0
  2  1  1  0  0  0  0
  2  8  1  0  0  0  0
  4  1  1  0  0  0  0
  6  2  1  0  0  0  0
  6  9  1  0  0  0  0
  6 10  1  0  0  0  0
  7  2  1  0  0  0  0
  9 13  1  0  0  0  0
  9 12  1  0  0  0  0
 11  6  1  0  0  0  0
 14  9  1  0  0  0  0
M  END
$$$$
