butane_opt
 OpenBabel08242015413D

 14 13  0  0  0  0  0  0  0  0999 V2000
   -3.9182    0.2698    0.0559 C   0  0  0  0  0  0  0  0  0  0  0  0
   -2.7134   -0.6100   -0.0017 C   0  0  0  0  0  0  0  0  0  0  0  0
   -4.8301   -0.3926   -0.1603 H   0  0  0  0  0  0  0  0  0  0  0  0
   -3.8616    0.6573   -0.6549 H   0  0  0  0  0  0  0  0  0  0  0  0
   -3.9935    1.0814    1.0102 H   0  0  0  0  0  0  0  0  0  0  0  0
   -1.4137    0.1926   -0.0369 C   0  0  0  0  0  0  0  0  0  0  0  0
   -2.7281   -1.2697   -0.8367 H   0  0  0  0  0  0  0  0  0  0  0  0
   -2.6163   -1.2230    0.8732 H   0  0  0  0  0  0  0  0  0  0  0  0
   -0.1803   -0.7045    0.0837 C   0  0  0  0  0  0  0  0  0  0  0  0
   -1.3820    0.8089    0.8141 H   0  0  0  0  0  0  0  0  0  0  0  0
   -1.3608    0.8613   -0.9517 H   0  0  0  0  0  0  0  0  0  0  0  0
   -0.1053   -1.4326    1.0426 H   0  0  0  0  0  0  0  0  0  0  0  0
    0.7237   -0.1024   -0.1812 H   0  0  0  0  0  0  0  0  0  0  0  0
   -0.1636   -1.2420   -0.7058 H   0  0  0  0  0  0  0  0  0  0  0  0
  1  5  1  0  0  0  0
  2  1  1  0  0  0  0
  2  8  1  0  0  0  0
  3  1  1  0  0  0  0
  4  1  1  0  0  0  0
  6  2  1  0  0  0  0
  6  9  1  0  0  0  0
  6 10  1  0  0  0  0
  7  2  1  0  0  0  0
  9 12  1  0  0  0  0
 11  6  1  0  0  0  0
 13  9  1  0  0  0  0
 14  9  1  0  0  0  0
M  END
$$$$
