butane_opt
 OpenBabel08242015413D

 14 13  0  0  0  0  0  0  0  0999 V2000
   -3.9497    0.2685    0.0903 C   0  0  0  0  0  0  0  0  0  0  0  0
   -2.6874   -0.6244   -0.0470 C   0  0  0  0  0  0  0  0  0  0  0  0
   -4.8280   -0.3167    0.1742 H   0  0  0  0  0  0  0  0  0  0  0  0
   -4.1292    0.9663   -0.8313 H   0  0  0  0  0  0  0  0  0  0  0  0
   -3.9110    0.9040    0.9755 H   0  0  0  0  0  0  0  0  0  0  0  0
   -1.3986    0.1747   -0.0608 C   0  0  0  0  0  0  0  0  0  0  0  0
   -2.6676   -1.3287   -0.9112 H   0  0  0  0  0  0  0  0  0  0  0  0
   -2.6087   -1.2482    0.8454 H   0  0  0  0  0  0  0  0  0  0  0  0
   -0.1729   -0.6736    0.0992 C   0  0  0  0  0  0  0  0  0  0  0  0
   -1.4478    0.8212    0.7113 H   0  0  0  0  0  0  0  0  0  0  0  0
   -1.2880    0.7578   -0.9181 H   0  0  0  0  0  0  0  0  0  0  0  0
   -0.2467   -1.3023    1.0389 H   0  0  0  0  0  0  0  0  0  0  0  0
    0.7293   -0.1169    0.1360 H   0  0  0  0  0  0  0  0  0  0  0  0
   -0.1089   -1.3483   -0.7715 H   0  0  0  0  0  0  0  0  0  0  0  0
  1  3  1  0  0  0  0
  1  5  1  0  0  0  0
  2  1  1  0  0  0  0
  2  8  1  0  0  0  0
  4  1  1  0  0  0  0
  6  2  1  0  0  0  0
  6  9  1  0  0  0  0
  6 10  1  0  0  0  0
  7  2  1  0  0  0  0
  9 13  1  0  0  0  0
  9 12  1  0  0  0  0
 11  6  1  0  0  0  0
 14  9  1  0  0  0  0
M  END
$$$$
