14
butane_opt
C  -3.917479   0.244707   0.036280
C  -2.705322  -0.584033   0.030853
H  -4.803708  -0.332729   0.076787
H  -3.892456   0.821682  -0.832547
H  -3.981178   0.868148   0.867946
C  -1.412251   0.205492  -0.031362
H  -2.826699  -1.218251  -0.761470
H  -2.759344  -1.252617   0.928525
C  -0.157895  -0.708123   0.041586
H  -1.376010   0.855709   0.830096
H  -1.479239   0.843846  -0.886664
H  -0.272987  -1.253364   0.884921
H   0.720517  -0.165069   0.258996
H  -0.033177  -1.540041  -0.859660
