butane_opt
 OpenBabel08242015413D

 14 13  0  0  0  0  0  0  0  0999 V2000
   -3.9332    0.2636    0.0004 C   0  0  0  0  0  0  0  0  0  0  0  0
   -2.6965   -0.6153    0.0889 C   0  0  0  0  0  0  0  0  0  0  0  0
   -4.8788   -0.3703    0.0624 H   0  0  0  0  0  0  0  0  0  0  0  0
   -3.9860    0.9238   -0.9339 H   0  0  0  0  0  0  0  0  0  0  0  0
   -3.9956    0.8720    0.8436 H   0  0  0  0  0  0  0  0  0  0  0  0
   -1.4096    0.1824    0.0010 C   0  0  0  0  0  0  0  0  0  0  0  0
   -2.7017   -1.2987   -0.7398 H   0  0  0  0  0  0  0  0  0  0  0  0
   -2.7132   -1.1990    0.9059 H   0  0  0  0  0  0  0  0  0  0  0  0
   -0.1645   -0.6842    0.0170 C   0  0  0  0  0  0  0  0  0  0  0  0
   -1.3937    0.8588    0.8386 H   0  0  0  0  0  0  0  0  0  0  0  0
   -1.4496    0.8299   -0.9264 H   0  0  0  0  0  0  0  0  0  0  0  0
   -0.2359   -1.1591    0.8119 H   0  0  0  0  0  0  0  0  0  0  0  0
    0.7283   -0.1102    0.2427 H   0  0  0  0  0  0  0  0  0  0  0  0
    0.0445   -1.5835   -0.9753 H   0  0  0  0  0  0  0  0  0  0  0  0
  1  3  1  0  0  0  0
  1  2  1  0  0  0  0
  1  5  1  0  0  0  0
  2  8  1  0  0  0  0
  4  1  1  0  0  0  0
  6  9  1  0  0  0  0
  6  2  1  0  0  0  0
  6 10  1  0  0  0  0
  7  2  1  0  0  0  0
  9 13  1  0  0  0  0
  9 12  1  0  0  0  0
 11  6  1  0  0  0  0
 14  9  1  0  0  0  0
M  END
$$$$
