14
butane_opt
C  -3.939322   0.251368  -0.009712
C  -2.712441  -0.594076   0.053653
H  -4.864452  -0.370707   0.170502
H  -4.002893   0.965777  -0.990115
H  -3.965781   0.820614   0.782498
C  -1.415989   0.197251   0.048424
H  -2.729775  -1.263027  -0.797545
H  -2.732902  -1.274473   0.966224
C  -0.138164  -0.704861   0.002941
H  -1.354991   0.904076   0.938676
H  -1.446094   0.771766  -0.816769
H  -0.112229  -1.296043   0.877030
H   0.764714  -0.107757   0.033147
H  -0.101432  -1.414117  -0.876041
