butane_opt
 OpenBabel08242015413D

 14 13  0  0  0  0  0  0  0  0999 V2000
   -3.9210    0.2822    0.0014 C   0  0  0  0  0  0  0  0  0  0  0  0
   -2.7079   -0.6318    0.0556 C   0  0  0  0  0  0  0  0  0  0  0  0
   -4.8659   -0.3430   -0.0018 H   0  0  0  0  0  0  0  0  0  0  0  0
   -3.9118    0.9310   -0.9141 H   0  0  0  0  0  0  0  0  0  0  0  0
   -4.0024    0.9074    0.7931 H   0  0  0  0  0  0  0  0  0  0  0  0
   -1.4026    0.1842    0.0412 C   0  0  0  0  0  0  0  0  0  0  0  0
   -2.6603   -1.3303   -0.8081 H   0  0  0  0  0  0  0  0  0  0  0  0
   -2.6488   -1.2233    0.9275 H   0  0  0  0  0  0  0  0  0  0  0  0
   -0.1851   -0.6881    0.0232 C   0  0  0  0  0  0  0  0  0  0  0  0
   -1.3732    0.8617    0.9237 H   0  0  0  0  0  0  0  0  0  0  0  0
   -1.3737    0.7205   -0.8157 H   0  0  0  0  0  0  0  0  0  0  0  0
   -0.1128   -1.3672    0.9478 H   0  0  0  0  0  0  0  0  0  0  0  0
    0.7772   -0.0638   -0.2065 H   0  0  0  0  0  0  0  0  0  0  0  0
   -0.2563   -1.3163   -0.8700 H   0  0  0  0  0  0  0  0  0  0  0  0
  1  2  1  0  0  0  0
  1  5  1  0  0  0  0
  2  8  1  0  0  0  0
  3  1  1  0  0  0  0
  4  1  1  0  0  0  0
  6  2  1  0  0  0  0
  6 10  1  0  0  0  0
  7  2  1  0  0  0  0
  9  6  1  0  0  0  0
  9 12  1  0  0  0  0
 11  6  1  0  0  0  0
 13  9  1  0  0  0  0
 14  9  1  0  0  0  0
M  END
$$$$
