butane_opt
 OpenBabel08242015413D

 14 13  0  0  0  0  0  0  0  0999 V2000
   -3.9643    0.2808   -0.0040 C   0  0  0  0  0  0  0  0  0  0  0  0
   -2.7039   -0.6359    0.0682 C   0  0  0  0  0  0  0  0  0  0  0  0
   -4.8388   -0.2924    0.2039 H   0  0  0  0  0  0  0  0  0  0  0  0
   -4.0189    1.0592   -1.0168 H   0  0  0  0  0  0  0  0  0  0  0  0
   -4.0231    0.7501    0.6957 H   0  0  0  0  0  0  0  0  0  0  0  0
   -1.3816    0.1941    0.0343 C   0  0  0  0  0  0  0  0  0  0  0  0
   -2.7636   -1.3049   -0.8085 H   0  0  0  0  0  0  0  0  0  0  0  0
   -2.7468   -1.2810    0.9404 H   0  0  0  0  0  0  0  0  0  0  0  0
   -0.1361   -0.6947    0.0123 C   0  0  0  0  0  0  0  0  0  0  0  0
   -1.3601    0.8419    0.9044 H   0  0  0  0  0  0  0  0  0  0  0  0
   -1.4189    0.7428   -0.8128 H   0  0  0  0  0  0  0  0  0  0  0  0
   -0.1828   -1.1139    0.8007 H   0  0  0  0  0  0  0  0  0  0  0  0
    0.7526   -0.0748    0.1316 H   0  0  0  0  0  0  0  0  0  0  0  0
   -0.1896   -1.5218   -0.9567 H   0  0  0  0  0  0  0  0  0  0  0  0
  1  2  1  0  0  0  0
  1  3  1  0  0  0  0
  1  5  1  0  0  0  0
  2  8  1  0  0  0  0
  4  1  1  0  0  0  0
  6  2  1  0  0  0  0
  6 10  1  0  0  0  0
  7  2  1  0  0  0  0
  9  6  1  0  0  0  0
  9 13  1  0  0  0  0
  9 12  1  0  0  0  0
 11  6  1  0  0  0  0
 14  9  1  0  0  0  0
M  END
$$$$
