butane_opt
 OpenBabel08242015413D

 14 13  0  0  0  0  0  0  0  0999 V2000
   -3.9269    0.2591    0.0348 C   0  0  0  0  0  0  0  0  0  0  0  0
   -2.6953   -0.5867    0.0455 C   0  0  0  0  0  0  0  0  0  0  0  0
   -4.9288   -0.3962    0.0301 H   0  0  0  0  0  0  0  0  0  0  0  0
   -3.8878    0.8666   -0.8540 H   0  0  0  0  0  0  0  0  0  0  0  0
   -3.9701    0.8642    0.8928 H   0  0  0  0  0  0  0  0  0  0  0  0
   -1.4174    0.1735   -0.0287 C   0  0  0  0  0  0  0  0  0  0  0  0
   -2.7639   -1.3058   -0.7999 H   0  0  0  0  0  0  0  0  0  0  0  0
   -2.6122   -1.2136    0.9018 H   0  0  0  0  0  0  0  0  0  0  0  0
   -0.1684   -0.6909    0.0503 C   0  0  0  0  0  0  0  0  0  0  0  0
   -1.4270    0.7991    0.7699 H   0  0  0  0  0  0  0  0  0  0  0  0
   -1.4427    0.8390   -0.9578 H   0  0  0  0  0  0  0  0  0  0  0  0
   -0.1588   -1.1389    0.8306 H   0  0  0  0  0  0  0  0  0  0  0  0
    0.7222   -0.1613    0.2597 H   0  0  0  0  0  0  0  0  0  0  0  0
   -0.0562   -1.4928   -0.8691 H   0  0  0  0  0  0  0  0  0  0  0  0
  1  2  1  0  0  0  0
  1  5  1  0  0  0  0
  2  8  1  0  0  0  0
  3  1  1  0  0  0  0
  4  1  1  0  0  0  0
  6  2  1  0  0  0  0
  6  9  1  0  0  0  0
  6 10  1  0  0  0  0
  7  2  1  0  0  0  0
  9 13  1  0  0  0  0
  9 12  1  0  0  0  0
 11  6  1  0  0  0  0
 14  9  1  0  0  0  0
M  END
$$$$
