butane_opt
 OpenBabel08242015413D

 14 13  0  0  0  0  0  0  0  0999 V2000
   -3.9295    0.2549    0.0540 C   0  0  0  0  0  0  0  0  0  0  0  0
   -2.6943   -0.6083   -0.0012 C   0  0  0  0  0  0  0  0  0  0  0  0
   -4.8189   -0.3733    0.0504 H   0  0  0  0  0  0  0  0  0  0  0  0
   -3.9404    0.7636   -0.7545 H   0  0  0  0  0  0  0  0  0  0  0  0
   -3.8759    0.9996    0.9970 H   0  0  0  0  0  0  0  0  0  0  0  0
   -1.4219    0.1857   -0.0613 C   0  0  0  0  0  0  0  0  0  0  0  0
   -2.7734   -1.2030   -0.7979 H   0  0  0  0  0  0  0  0  0  0  0  0
   -2.6848   -1.2398    0.9530 H   0  0  0  0  0  0  0  0  0  0  0  0
   -0.1679   -0.6912    0.0834 C   0  0  0  0  0  0  0  0  0  0  0  0
   -1.4578    0.8912    0.7899 H   0  0  0  0  0  0  0  0  0  0  0  0
   -1.3708    0.8664   -0.9970 H   0  0  0  0  0  0  0  0  0  0  0  0
   -0.1363   -1.2697    0.9374 H   0  0  0  0  0  0  0  0  0  0  0  0
    0.6695   -0.1647    0.2084 H   0  0  0  0  0  0  0  0  0  0  0  0
   -0.0731   -1.4523   -0.8419 H   0  0  0  0  0  0  0  0  0  0  0  0
  1  5  1  0  0  0  0
  2  1  1  0  0  0  0
  2  8  1  0  0  0  0
  3  1  1  0  0  0  0
  4  1  1  0  0  0  0
  6  2  1  0  0  0  0
  6  9  1  0  0  0  0
  6 10  1  0  0  0  0
  7  2  1  0  0  0  0
  9 13  1  0  0  0  0
  9 12  1  0  0  0  0
 11  6  1  0  0  0  0
 14  9  1  0  0  0  0
M  END
$$$$
