butane_opt
 OpenBabel08242015413D

 14 13  0  0  0  0  0  0  0  0999 V2000
   -3.9612    0.2742    0.0434 C   0  0  0  0  0  0  0  0  0  0  0  0
   -2.7020   -0.6309    0.0092 C   0  0  0  0  0  0  0  0  0  0  0  0
   -4.8321   -0.2784    0.0061 H   0  0  0  0  0  0  0  0  0  0  0  0
   -4.0119    0.8954   -0.8331 H   0  0  0  0  0  0  0  0  0  0  0  0
   -3.9808    0.9647    0.9012 H   0  0  0  0  0  0  0  0  0  0  0  0
   -1.3855    0.1797   -0.0035 C   0  0  0  0  0  0  0  0  0  0  0  0
   -2.7377   -1.3700   -0.8854 H   0  0  0  0  0  0  0  0  0  0  0  0
   -2.6595   -1.2490    0.8988 H   0  0  0  0  0  0  0  0  0  0  0  0
   -0.1640   -0.6850    0.0521 C   0  0  0  0  0  0  0  0  0  0  0  0
   -1.3479    0.8243    0.8236 H   0  0  0  0  0  0  0  0  0  0  0  0
   -1.3408    0.8420   -0.8866 H   0  0  0  0  0  0  0  0  0  0  0  0
   -0.1316   -1.3645    0.9925 H   0  0  0  0  0  0  0  0  0  0  0  0
    0.7404   -0.1073   -0.0404 H   0  0  0  0  0  0  0  0  0  0  0  0
   -0.1675   -1.2819   -0.7492 H   0  0  0  0  0  0  0  0  0  0  0  0
  1  5  1  0  0  0  0
  2  1  1  0  0  0  0
  2  8  1  0  0  0  0
  3  1  1  0  0  0  0
  4  1  1  0  0  0  0
  6  2  1  0  0  0  0
  6  9  1  0  0  0  0
  6 10  1  0  0  0  0
  7  2  1  0  0  0  0
  9 12  1  0  0  0  0
 11  6  1  0  0  0  0
 13  9  1  0  0  0  0
 14  9  1  0  0  0  0
M  END
$$$$
