14
butane_opt
C  -3.929531   0.254859   0.054047
C  -2.694321  -0.608324  -0.001225
H  -4.818853  -0.373262   0.050428
H  -3.940368   0.763633  -0.754476
H  -3.875857   0.999638   0.997007
C  -1.421921   0.185658  -0.061283
H  -2.773432  -1.202987  -0.797871
H  -2.684757  -1.239803   0.952984
C  -0.167945  -0.691183   0.083388
H  -1.457777   0.891240   0.789890
H  -1.370842   0.866426  -0.997028
H  -0.136312  -1.269702   0.937395
H   0.669491  -0.164730   0.208407
H  -0.073100  -1.452324  -0.841947
