14
butane_opt
C  -3.964317   0.280810  -0.004005
C  -2.703886  -0.635881   0.068152
H  -4.838786  -0.292413   0.203924
H  -4.018927   1.059186  -1.016816
H  -4.023131   0.750120   0.695734
C  -1.381623   0.194082   0.034258
H  -2.763560  -1.304897  -0.808526
H  -2.746816  -1.281030   0.940431
C  -0.136108  -0.694727   0.012286
H  -1.360099   0.841906   0.904421
H  -1.418882   0.742797  -0.812774
H  -0.182844  -1.113858   0.800652
H   0.752563  -0.074846   0.131628
H  -0.189646  -1.521766  -0.956720
