butane_opt
 OpenBabel08242015413D

 14 13  0  0  0  0  0  0  0  0999 V2000
   -3.9678    0.2824   -0.0069 C   0  0  0  0  0  0  0  0  0  0  0  0
   -2.6734   -0.6252    0.0871 C   0  0  0  0  0  0  0  0  0  0  0  0
   -4.8459   -0.3019   -0.1291 H   0  0  0  0  0  0  0  0  0  0  0  0
   -3.8476    0.7740   -0.8976 H   0  0  0  0  0  0  0  0  0  0  0  0
   -4.1597    1.0274    0.8692 H   0  0  0  0  0  0  0  0  0  0  0  0
   -1.3899    0.1575    0.0234 C   0  0  0  0  0  0  0  0  0  0  0  0
   -2.7251   -1.2714   -0.7517 H   0  0  0  0  0  0  0  0  0  0  0  0
   -2.7066   -1.3280    1.0900 H   0  0  0  0  0  0  0  0  0  0  0  0
   -0.1649   -0.6691   -0.0072 C   0  0  0  0  0  0  0  0  0  0  0  0
   -1.3706    0.8764    0.9062 H   0  0  0  0  0  0  0  0  0  0  0  0
   -1.3511    0.7284   -0.8274 H   0  0  0  0  0  0  0  0  0  0  0  0
   -0.2147   -1.2511    0.8926 H   0  0  0  0  0  0  0  0  0  0  0  0
    0.7124   -0.1332    0.0193 H   0  0  0  0  0  0  0  0  0  0  0  0
   -0.1570   -1.3415   -0.8844 H   0  0  0  0  0  0  0  0  0  0  0  0
  1  2  1  0  0  0  0
  1  5  1  0  0  0  0
  2  8  1  0  0  0  0
  3  1  1  0  0  0  0
  4  1  1  0  0  0  0
  6  2  1  0  0  0  0
  6 10  1  0  0  0  0
  7  2  1  0  0  0  0
  9 13  1  0  0  0  0
  9  6  1  0  0  0  0
  9 12  1  0  0  0  0
 11  6  1  0  0  0  0
 14  9  1  0  0  0  0
M  END
$$$$
