butane_opt
 OpenBabel08242015413D

 14 13  0  0  0  0  0  0  0  0999 V2000
   -3.9412    0.2688   -0.0122 C   0  0  0  0  0  0  0  0  0  0  0  0
   -2.6835   -0.6289    0.0693 C   0  0  0  0  0  0  0  0  0  0  0  0
   -4.8331   -0.2948   -0.0215 H   0  0  0  0  0  0  0  0  0  0  0  0
   -3.9727    0.9110   -0.9117 H   0  0  0  0  0  0  0  0  0  0  0  0
   -4.0297    0.9861    0.8618 H   0  0  0  0  0  0  0  0  0  0  0  0
   -1.4059    0.1712    0.0482 C   0  0  0  0  0  0  0  0  0  0  0  0
   -2.7234   -1.3245   -0.8269 H   0  0  0  0  0  0  0  0  0  0  0  0
   -2.7112   -1.2416    0.9508 H   0  0  0  0  0  0  0  0  0  0  0  0
   -0.1678   -0.6820    0.0092 C   0  0  0  0  0  0  0  0  0  0  0  0
   -1.3423    0.8487    0.9085 H   0  0  0  0  0  0  0  0  0  0  0  0
   -1.4217    0.8005   -0.8470 H   0  0  0  0  0  0  0  0  0  0  0  0
   -0.1341   -1.3346    0.9194 H   0  0  0  0  0  0  0  0  0  0  0  0
    0.7571   -0.0704   -0.1295 H   0  0  0  0  0  0  0  0  0  0  0  0
   -0.2281   -1.2957   -0.8344 H   0  0  0  0  0  0  0  0  0  0  0  0
  1  2  1  0  0  0  0
  1  5  1  0  0  0  0
  2  8  1  0  0  0  0
  3  1  1  0  0  0  0
  4  1  1  0  0  0  0
  6  2  1  0  0  0  0
  6 10  1  0  0  0  0
  7  2  1  0  0  0  0
  9  6  1  0  0  0  0
  9 12  1  0  0  0  0
 11  6  1  0  0  0  0
 13  9  1  0  0  0  0
 14  9  1  0  0  0  0
M  END
$$$$
