14
butane_opt
C  -3.945800   0.286083  -0.012148
C  -2.680670  -0.638578   0.053585
H  -4.831082  -0.291428  -0.035724
H  -4.012698   0.911286  -0.862281
H  -3.975211   0.930396   0.839686
C  -1.391926   0.153660   0.074002
H  -2.684261  -1.344162  -0.821176
H  -2.728313  -1.233318   0.940016
C  -0.188666  -0.677002  -0.001341
H  -1.334038   0.864535   0.903561
H  -1.388468   0.863060  -0.890467
H  -0.081345  -1.393068   0.972310
H   0.737966  -0.039783  -0.165244
H  -0.251313  -1.228859  -0.802926
