butane_opt
 OpenBabel08242015413D

 14 13  0  0  0  0  0  0  0  0999 V2000
   -3.9354    0.2685   -0.0125 C   0  0  0  0  0  0  0  0  0  0  0  0
   -2.6835   -0.6376    0.0597 C   0  0  0  0  0  0  0  0  0  0  0  0
   -4.8356   -0.2672    0.2352 H   0  0  0  0  0  0  0  0  0  0  0  0
   -4.1023    1.1147   -1.0294 H   0  0  0  0  0  0  0  0  0  0  0  0
   -3.9736    0.7452    0.7120 H   0  0  0  0  0  0  0  0  0  0  0  0
   -1.4102    0.1830    0.0452 C   0  0  0  0  0  0  0  0  0  0  0  0
   -2.6283   -1.3296   -0.7646 H   0  0  0  0  0  0  0  0  0  0  0  0
   -2.7516   -1.2782    0.9560 H   0  0  0  0  0  0  0  0  0  0  0  0
   -0.1638   -0.6930    0.0013 C   0  0  0  0  0  0  0  0  0  0  0  0
   -1.3254    1.0250    0.9901 H   0  0  0  0  0  0  0  0  0  0  0  0
   -1.4266    0.6973   -0.7816 H   0  0  0  0  0  0  0  0  0  0  0  0
   -0.2493   -1.1924    0.8093 H   0  0  0  0  0  0  0  0  0  0  0  0
    0.7552   -0.0730    0.0274 H   0  0  0  0  0  0  0  0  0  0  0  0
   -0.1572   -1.3615   -0.8647 H   0  0  0  0  0  0  0  0  0  0  0  0
  1  2  1  0  0  0  0
  1  3  1  0  0  0  0
  1  5  1  0  0  0  0
  2  8  1  0  0  0  0
  4  1  1  0  0  0  0
  6  2  1  0  0  0  0
  6 10  1  0  0  0  0
  7  2  1  0  0  0  0
  9 13  1  0  0  0  0
  9  6  1  0  0  0  0
  9 12  1  0  0  0  0
 11  6  1  0  0  0  0
 14  9  1  0  0  0  0
M  END
$$$$
