butane_opt
 OpenBabel08242015413D

 14 13  0  0  0  0  0  0  0  0999 V2000
   -3.9446    0.2569   -0.0142 C   0  0  0  0  0  0  0  0  0  0  0  0
   -2.6888   -0.5948    0.0881 C   0  0  0  0  0  0  0  0  0  0  0  0
   -4.8812   -0.3361    0.0129 H   0  0  0  0  0  0  0  0  0  0  0  0
   -3.8961    0.9509   -0.9787 H   0  0  0  0  0  0  0  0  0  0  0  0
   -3.9883    0.7863    0.7814 H   0  0  0  0  0  0  0  0  0  0  0  0
   -1.3983    0.1677    0.0454 C   0  0  0  0  0  0  0  0  0  0  0  0
   -2.6999   -1.3298   -0.8047 H   0  0  0  0  0  0  0  0  0  0  0  0
   -2.6927   -1.1883    0.9225 H   0  0  0  0  0  0  0  0  0  0  0  0
   -0.1762   -0.6951   -0.0006 C   0  0  0  0  0  0  0  0  0  0  0  0
   -1.4334    0.9574    0.9726 H   0  0  0  0  0  0  0  0  0  0  0  0
   -1.4136    0.8310   -0.8367 H   0  0  0  0  0  0  0  0  0  0  0  0
   -0.0496   -1.2861    0.8740 H   0  0  0  0  0  0  0  0  0  0  0  0
    0.7060   -0.0867   -0.0608 H   0  0  0  0  0  0  0  0  0  0  0  0
   -0.1839   -1.3946   -0.8854 H   0  0  0  0  0  0  0  0  0  0  0  0
  1  3  1  0  0  0  0
  1  2  1  0  0  0  0
  1  5  1  0  0  0  0
  2  8  1  0  0  0  0
  4  1  1  0  0  0  0
  6  2  1  0  0  0  0
  6 10  1  0  0  0  0
  7  2  1  0  0  0  0
  9  6  1  0  0  0  0
  9 12  1  0  0  0  0
 11  6  1  0  0  0  0
 13  9  1  0  0  0  0
 14  9  1  0  0  0  0
M  END
$$$$
