butane_opt
 OpenBabel08242015413D

 14 13  0  0  0  0  0  0  0  0999 V2000
   -3.9195    0.2460   -0.0024 C   0  0  0  0  0  0  0  0  0  0  0  0
   -2.6993   -0.5889    0.0807 C   0  0  0  0  0  0  0  0  0  0  0  0
   -4.8588   -0.3737   -0.2667 H   0  0  0  0  0  0  0  0  0  0  0  0
   -3.8394    0.7794   -0.8678 H   0  0  0  0  0  0  0  0  0  0  0  0
   -4.0631    1.0837    0.9630 H   0  0  0  0  0  0  0  0  0  0  0  0
   -1.4215    0.1839    0.0185 C   0  0  0  0  0  0  0  0  0  0  0  0
   -2.7304   -1.1497   -0.7167 H   0  0  0  0  0  0  0  0  0  0  0  0
   -2.7247   -1.3229    1.0465 H   0  0  0  0  0  0  0  0  0  0  0  0
   -0.1563   -0.7120    0.0084 C   0  0  0  0  0  0  0  0  0  0  0  0
   -1.3393    0.8764    0.9058 H   0  0  0  0  0  0  0  0  0  0  0  0
   -1.4439    0.7880   -0.8660 H   0  0  0  0  0  0  0  0  0  0  0  0
   -0.1847   -1.2547    0.9103 H   0  0  0  0  0  0  0  0  0  0  0  0
    0.7592   -0.0904   -0.0514 H   0  0  0  0  0  0  0  0  0  0  0  0
   -0.2181   -1.3705   -0.8775 H   0  0  0  0  0  0  0  0  0  0  0  0
  1  2  1  0  0  0  0
  1  5  1  0  0  0  0
  2  8  1  0  0  0  0
  3  1  1  0  0  0  0
  4  1  1  0  0  0  0
  6  2  1  0  0  0  0
  6 10  1  0  0  0  0
  7  2  1  0  0  0  0
  9  6  1  0  0  0  0
  9 12  1  0  0  0  0
 11  6  1  0  0  0  0
 13  9  1  0  0  0  0
 14  9  1  0  0  0  0
M  END
$$$$
