butane_opt
 OpenBabel08242015413D

 14 13  0  0  0  0  0  0  0  0999 V2000
   -3.9458    0.2861   -0.0121 C   0  0  0  0  0  0  0  0  0  0  0  0
   -2.6807   -0.6386    0.0536 C   0  0  0  0  0  0  0  0  0  0  0  0
   -4.8311   -0.2914   -0.0357 H   0  0  0  0  0  0  0  0  0  0  0  0
   -4.0127    0.9113   -0.8623 H   0  0  0  0  0  0  0  0  0  0  0  0
   -3.9752    0.9304    0.8397 H   0  0  0  0  0  0  0  0  0  0  0  0
   -1.3919    0.1537    0.0740 C   0  0  0  0  0  0  0  0  0  0  0  0
   -2.6843   -1.3442   -0.8212 H   0  0  0  0  0  0  0  0  0  0  0  0
   -2.7283   -1.2333    0.9400 H   0  0  0  0  0  0  0  0  0  0  0  0
   -0.1887   -0.6770   -0.0013 C   0  0  0  0  0  0  0  0  0  0  0  0
   -1.3340    0.8645    0.9036 H   0  0  0  0  0  0  0  0  0  0  0  0
   -1.3885    0.8631   -0.8905 H   0  0  0  0  0  0  0  0  0  0  0  0
   -0.0813   -1.3931    0.9723 H   0  0  0  0  0  0  0  0  0  0  0  0
    0.7380   -0.0398   -0.1652 H   0  0  0  0  0  0  0  0  0  0  0  0
   -0.2513   -1.2289   -0.8029 H   0  0  0  0  0  0  0  0  0  0  0  0
  1  2  1  0  0  0  0
  1  5  1  0  0  0  0
  2  6  1  0  0  0  0
  2  8  1  0  0  0  0
  3  1  1  0  0  0  0
  4  1  1  0  0  0  0
  6 10  1  0  0  0  0
  7  2  1  0  0  0  0
  9  6  1  0  0  0  0
  9 12  1  0  0  0  0
 11  6  1  0  0  0  0
 13  9  1  0  0  0  0
 14  9  1  0  0  0  0
M  END
$$$$
