14
butane_opt
C  -3.923458   0.242328  -0.013000
C  -2.710736  -0.592617   0.046459
H  -4.876012  -0.414146   0.047552
H  -4.013517   0.886034  -0.947923
H  -3.938766   0.928481   0.874132
C  -1.407218   0.213893   0.050635
H  -2.732432  -1.218295  -0.768803
H  -2.651792  -1.286412   0.984577
C  -0.167320  -0.712925   0.016660
H  -1.368785   0.972801   0.957085
H  -1.383358   0.771204  -0.849060
H  -0.069494  -1.397383   0.925806
H   0.703972  -0.167916  -0.163530
H  -0.163991  -1.362687  -0.839034
