14
butane_opt
C  -3.919523   0.246004  -0.002422
C  -2.699282  -0.588907   0.080656
H  -4.858825  -0.373655  -0.266715
H  -3.839440   0.779355  -0.867835
H  -4.063069   1.083710   0.962957
C  -1.421451   0.183854   0.018538
H  -2.730439  -1.149675  -0.716654
H  -2.724660  -1.322853   1.046504
C  -0.156251  -0.712006   0.008414
H  -1.339342   0.876386   0.905816
H  -1.443884   0.787982  -0.865999
H  -0.184690  -1.254670   0.910285
H   0.759178  -0.090412  -0.051388
H  -0.218072  -1.370511  -0.877480
