14
butane_opt
C  -3.912240   0.253850   0.071316
C  -2.704096  -0.590014  -0.028226
H  -4.922587  -0.430630   0.279232
H  -4.063348   0.938877  -0.825651
H  -3.738292   0.846140   0.853726
C  -1.423694   0.201015  -0.031067
H  -2.802266  -1.388370  -1.012638
H  -2.697094  -1.066772   0.747135
C  -0.157002  -0.717801   0.086103
H  -1.485870   0.813747   0.752804
H  -1.370635   0.835417  -0.929417
H  -0.198431  -1.406645   1.048997
H   0.764526  -0.114456   0.037471
H  -0.131784  -1.271845  -0.687967
