14
butane_opt
C  -3.953866   0.248264  -0.040384
C  -2.720183  -0.594914   0.089461
H  -4.936902  -0.405683   0.189127
H  -4.063099   1.062634  -1.080416
H  -3.836909   0.712928   0.739916
C  -1.404627   0.214382   0.083352
H  -2.652310  -1.312821  -0.808758
H  -2.799414  -1.236920   0.987161
C  -0.125319  -0.705827  -0.017399
H  -1.420709   0.903091   0.923296
H  -1.415680   0.820757  -0.770479
H  -0.019728  -1.263296   0.813661
H   0.718513  -0.190444   0.021529
H  -0.134250  -1.512825  -0.987328
