14
butane_opt
C  -3.912706   0.248582  -0.005425
C  -2.710626  -0.587062   0.075243
H  -4.860638  -0.378522   0.040498
H  -3.931688   0.915147  -0.964047
H  -3.958646   0.838253   0.829493
C  -1.437526   0.184657   0.035880
H  -2.711111  -1.272033  -0.770268
H  -2.663835  -1.241382   0.980613
C  -0.151372  -0.698602  -0.002249
H  -1.378366   0.882993   0.861384
H  -1.478680   0.869369  -0.889730
H  -0.193952  -1.273793   0.838003
H   0.800299  -0.089253   0.209420
H  -0.094623  -1.499420  -0.946541
