butane_opt
 OpenBabel08242015413D

 14 13  0  0  0  0  0  0  0  0999 V2000
   -3.9313    0.2371   -0.0325 C   0  0  0  0  0  0  0  0  0  0  0  0
   -2.7238   -0.6002    0.0805 C   0  0  0  0  0  0  0  0  0  0  0  0
   -4.8653   -0.3421   -0.0257 H   0  0  0  0  0  0  0  0  0  0  0  0
   -3.9032    0.9848   -0.9913 H   0  0  0  0  0  0  0  0  0  0  0  0
   -4.0339    0.9275    0.8278 H   0  0  0  0  0  0  0  0  0  0  0  0
   -1.4083    0.2123    0.0744 C   0  0  0  0  0  0  0  0  0  0  0  0
   -2.7223   -1.2434   -0.7520 H   0  0  0  0  0  0  0  0  0  0  0  0
   -2.7898   -1.2874    1.0209 H   0  0  0  0  0  0  0  0  0  0  0  0
   -0.1492   -0.7143   -0.0287 C   0  0  0  0  0  0  0  0  0  0  0  0
   -1.3842    0.9991    1.0311 H   0  0  0  0  0  0  0  0  0  0  0  0
   -1.3587    0.7448   -0.7264 H   0  0  0  0  0  0  0  0  0  0  0  0
    0.0721   -1.4501    0.8933 H   0  0  0  0  0  0  0  0  0  0  0  0
    0.7253   -0.1379   -0.1515 H   0  0  0  0  0  0  0  0  0  0  0  0
   -0.2009   -1.2872   -0.8080 H   0  0  0  0  0  0  0  0  0  0  0  0
  1  3  1  0  0  0  0
  1  2  1  0  0  0  0
  1  5  1  0  0  0  0
  2  8  1  0  0  0  0
  4  1  1  0  0  0  0
  6  2  1  0  0  0  0
  6 10  1  0  0  0  0
  7  2  1  0  0  0  0
  9  6  1  0  0  0  0
  9 12  1  0  0  0  0
 11  6  1  0  0  0  0
 13  9  1  0  0  0  0
 14  9  1  0  0  0  0
M  END
$$$$
