butane_opt
 OpenBabel08242015413D

 14 13  0  0  0  0  0  0  0  0999 V2000
   -3.9387    0.2533    0.0038 C   0  0  0  0  0  0  0  0  0  0  0  0
   -2.7042   -0.6009    0.0438 C   0  0  0  0  0  0  0  0  0  0  0  0
   -4.8401   -0.3614    0.0951 H   0  0  0  0  0  0  0  0  0  0  0  0
   -3.9762    1.0095   -0.9838 H   0  0  0  0  0  0  0  0  0  0  0  0
   -3.9266    0.8161    0.8048 H   0  0  0  0  0  0  0  0  0  0  0  0
   -1.4051    0.1934    0.0367 C   0  0  0  0  0  0  0  0  0  0  0  0
   -2.7533   -1.2503   -0.8023 H   0  0  0  0  0  0  0  0  0  0  0  0
   -2.7212   -1.2684    0.9573 H   0  0  0  0  0  0  0  0  0  0  0  0
   -0.1539   -0.7018    0.0170 C   0  0  0  0  0  0  0  0  0  0  0  0
   -1.3784    0.9374    0.9149 H   0  0  0  0  0  0  0  0  0  0  0  0
   -1.4482    0.7508   -0.7832 H   0  0  0  0  0  0  0  0  0  0  0  0
   -0.1237   -1.3142    0.9015 H   0  0  0  0  0  0  0  0  0  0  0  0
    0.7466   -0.1222   -0.0222 H   0  0  0  0  0  0  0  0  0  0  0  0
   -0.1710   -1.3957   -0.8759 H   0  0  0  0  0  0  0  0  0  0  0  0
  1  2  1  0  0  0  0
  1  3  1  0  0  0  0
  1  5  1  0  0  0  0
  2  8  1  0  0  0  0
  4  1  1  0  0  0  0
  6  2  1  0  0  0  0
  6 10  1  0  0  0  0
  7  2  1  0  0  0  0
  9  6  1  0  0  0  0
  9 12  1  0  0  0  0
 11  6  1  0  0  0  0
 13  9  1  0  0  0  0
 14  9  1  0  0  0  0
M  END
$$$$
