14
butane_opt
C  -3.948464   0.242487   0.045303
C  -2.705937  -0.594187   0.017224
H  -4.837101  -0.307260   0.051809
H  -3.941249   0.790784  -0.809994
H  -3.898801   0.923057   0.928076
C  -1.403959   0.216457  -0.032420
H  -2.861082  -1.198189  -0.825934
H  -2.690344  -1.322141   0.932231
C  -0.154106  -0.712492   0.056708
H  -1.431411   0.863552   0.808143
H  -1.344067   0.886920  -0.987121
H  -0.146023  -1.288553   0.916965
H   0.681021  -0.157786   0.276806
H  -0.009848  -1.499286  -0.897313
