butane_opt
 OpenBabel08242015413D

 14 13  0  0  0  0  0  0  0  0999 V2000
   -3.9539    0.2483   -0.0404 C   0  0  0  0  0  0  0  0  0  0  0  0
   -2.7202   -0.5949    0.0895 C   0  0  0  0  0  0  0  0  0  0  0  0
   -4.9369   -0.4057    0.1891 H   0  0  0  0  0  0  0  0  0  0  0  0
   -4.0631    1.0626   -1.0804 H   0  0  0  0  0  0  0  0  0  0  0  0
   -3.8369    0.7129    0.7399 H   0  0  0  0  0  0  0  0  0  0  0  0
   -1.4046    0.2144    0.0834 C   0  0  0  0  0  0  0  0  0  0  0  0
   -2.6523   -1.3128   -0.8088 H   0  0  0  0  0  0  0  0  0  0  0  0
   -2.7994   -1.2369    0.9872 H   0  0  0  0  0  0  0  0  0  0  0  0
   -0.1253   -0.7058   -0.0174 C   0  0  0  0  0  0  0  0  0  0  0  0
   -1.4207    0.9031    0.9233 H   0  0  0  0  0  0  0  0  0  0  0  0
   -1.4157    0.8208   -0.7705 H   0  0  0  0  0  0  0  0  0  0  0  0
   -0.0197   -1.2633    0.8137 H   0  0  0  0  0  0  0  0  0  0  0  0
    0.7185   -0.1904    0.0215 H   0  0  0  0  0  0  0  0  0  0  0  0
   -0.1343   -1.5128   -0.9873 H   0  0  0  0  0  0  0  0  0  0  0  0
  1  2  1  0  0  0  0
  1  3  1  0  0  0  0
  1  5  1  0  0  0  0
  2  8  1  0  0  0  0
  4  1  1  0  0  0  0
  6  2  1  0  0  0  0
  6 10  1  0  0  0  0
  7  2  1  0  0  0  0
  9 13  1  0  0  0  0
  9  6  1  0  0  0  0
  9 12  1  0  0  0  0
 11  6  1  0  0  0  0
 14  9  1  0  0  0  0
M  END
$$$$
