14
butane_opt
C  -3.978148   0.278019   0.063527
C  -2.698470  -0.645986   0.011149
H  -4.856246  -0.242258  -0.139688
H  -3.937899   0.682922  -0.716285
H  -4.014027   1.195347   1.059683
C  -1.374129   0.178262  -0.043042
H  -2.671819  -1.424047  -0.929457
H  -2.741165  -1.220135   0.855284
C  -0.163091  -0.685249   0.076980
H  -1.374284   0.784543   0.739275
H  -1.324327   0.970923  -0.997437
H  -0.086009  -1.415833   1.052463
H   0.733584  -0.131599  -0.039180
H  -0.187900  -1.176409  -0.696756
