14
butane_opt
C  -3.968028   0.285025  -0.036462
C  -2.703893  -0.636819   0.116396
H  -4.926527  -0.348473  -0.160004
H  -4.012451   0.835056  -0.902493
H  -4.069408   1.035957   0.896994
C  -1.378617   0.186105   0.053195
H  -2.579584  -1.313407  -0.734631
H  -2.738894  -1.276905   1.007938
C  -0.157459  -0.685994  -0.008214
H  -1.323093   0.748345   0.874276
H  -1.349087   0.808667  -0.863711
H  -0.112792  -1.250700   0.802673
H   0.797409  -0.074380  -0.036610
H  -0.202814  -1.411720  -0.944057
