14
butane_opt
C  -3.957344   0.265881   0.072424
C  -2.706280  -0.604656  -0.038050
H  -4.844025  -0.324482   0.219189
H  -3.928473   0.908971  -0.851673
H  -3.904688   0.800564   0.898225
C  -1.405194   0.176485  -0.017967
H  -2.799119  -1.409335  -0.973324
H  -2.649302  -1.150014   0.789954
C  -0.143852  -0.692754   0.085624
H  -1.444710   0.888543   0.795371
H  -1.445339   0.887693  -0.958620
H  -0.100228  -1.421282   1.068808
H   0.782184  -0.107761  -0.045698
H  -0.153020  -1.274102  -0.714365
