butane_opt
 OpenBabel08242015413D

 14 13  0  0  0  0  0  0  0  0999 V2000
   -3.9332    0.2780    0.0015 C   0  0  0  0  0  0  0  0  0  0  0  0
   -2.7177   -0.6176    0.0366 C   0  0  0  0  0  0  0  0  0  0  0  0
   -4.8450   -0.3326    0.2296 H   0  0  0  0  0  0  0  0  0  0  0  0
   -4.0891    1.0262   -0.9389 H   0  0  0  0  0  0  0  0  0  0  0  0
   -3.7999    0.7714    0.7226 H   0  0  0  0  0  0  0  0  0  0  0  0
   -1.3941    0.1781    0.0445 C   0  0  0  0  0  0  0  0  0  0  0  0
   -2.6843   -1.3549   -0.8212 H   0  0  0  0  0  0  0  0  0  0  0  0
   -2.7701   -1.2147    0.8896 H   0  0  0  0  0  0  0  0  0  0  0  0
   -0.1639   -0.7016    0.0165 C   0  0  0  0  0  0  0  0  0  0  0  0
   -1.4479    0.8900    0.8793 H   0  0  0  0  0  0  0  0  0  0  0  0
   -1.4141    0.7575   -0.8189 H   0  0  0  0  0  0  0  0  0  0  0  0
   -0.1076   -1.2563    0.9115 H   0  0  0  0  0  0  0  0  0  0  0  0
    0.7780   -0.0397   -0.0117 H   0  0  0  0  0  0  0  0  0  0  0  0
   -0.1542   -1.3484   -0.8134 H   0  0  0  0  0  0  0  0  0  0  0  0
  1  2  1  0  0  0  0
  1  3  1  0  0  0  0
  1  5  1  0  0  0  0
  2  6  1  0  0  0  0
  2  8  1  0  0  0  0
  4  1  1  0  0  0  0
  6 10  1  0  0  0  0
  7  2  1  0  0  0  0
  9  6  1  0  0  0  0
  9 12  1  0  0  0  0
 11  6  1  0  0  0  0
 13  9  1  0  0  0  0
 14  9  1  0  0  0  0
M  END
$$$$
