14
butane_opt
C  -3.946109   0.246292  -0.033309
C  -2.715337  -0.600197   0.075599
H  -4.824826  -0.337446   0.187096
H  -4.093222   1.074580  -1.061662
H  -3.952031   0.696933   0.664866
C  -1.403087   0.207487   0.084862
H  -2.764462  -1.293529  -0.799754
H  -2.731262  -1.275224   0.971401
C  -0.131277  -0.701698  -0.007768
H  -1.436158   0.897632   0.975793
H  -1.455630   0.818293  -0.789990
H   0.043657  -1.190103   0.821154
H   0.751817  -0.182903  -0.039022
H  -0.206434  -1.495641  -0.963069
