butane_opt
 OpenBabel08242015413D

 14 13  0  0  0  0  0  0  0  0999 V2000
   -3.9461    0.2463   -0.0333 C   0  0  0  0  0  0  0  0  0  0  0  0
   -2.7153   -0.6002    0.0756 C   0  0  0  0  0  0  0  0  0  0  0  0
   -4.8248   -0.3374    0.1871 H   0  0  0  0  0  0  0  0  0  0  0  0
   -4.0932    1.0746   -1.0617 H   0  0  0  0  0  0  0  0  0  0  0  0
   -3.9520    0.6969    0.6649 H   0  0  0  0  0  0  0  0  0  0  0  0
   -1.4031    0.2075    0.0849 C   0  0  0  0  0  0  0  0  0  0  0  0
   -2.7645   -1.2935   -0.7998 H   0  0  0  0  0  0  0  0  0  0  0  0
   -2.7313   -1.2752    0.9714 H   0  0  0  0  0  0  0  0  0  0  0  0
   -0.1313   -0.7017   -0.0078 C   0  0  0  0  0  0  0  0  0  0  0  0
   -1.4362    0.8976    0.9758 H   0  0  0  0  0  0  0  0  0  0  0  0
   -1.4556    0.8183   -0.7900 H   0  0  0  0  0  0  0  0  0  0  0  0
    0.0437   -1.1901    0.8212 H   0  0  0  0  0  0  0  0  0  0  0  0
    0.7518   -0.1829   -0.0390 H   0  0  0  0  0  0  0  0  0  0  0  0
   -0.2064   -1.4956   -0.9631 H   0  0  0  0  0  0  0  0  0  0  0  0
  1  2  1  0  0  0  0
  1  3  1  0  0  0  0
  1  5  1  0  0  0  0
  2  6  1  0  0  0  0
  2  8  1  0  0  0  0
  4  1  1  0  0  0  0
  6 10  1  0  0  0  0
  7  2  1  0  0  0  0
  9  6  1  0  0  0  0
  9 12  1  0  0  0  0
 11  6  1  0  0  0  0
 13  9  1  0  0  0  0
 14  9  1  0  0  0  0
M  END
$$$$
