butane_opt
 OpenBabel08242015413D

 14 13  0  0  0  0  0  0  0  0999 V2000
   -3.9398    0.2531    0.0437 C   0  0  0  0  0  0  0  0  0  0  0  0
   -2.7069   -0.6020   -0.0079 C   0  0  0  0  0  0  0  0  0  0  0  0
   -4.8554   -0.3749    0.1602 H   0  0  0  0  0  0  0  0  0  0  0  0
   -4.0835    0.8848   -0.8179 H   0  0  0  0  0  0  0  0  0  0  0  0
   -3.8913    0.8953    0.9239 H   0  0  0  0  0  0  0  0  0  0  0  0
   -1.4314    0.1961   -0.0261 C   0  0  0  0  0  0  0  0  0  0  0  0
   -2.7561   -1.3091   -0.9095 H   0  0  0  0  0  0  0  0  0  0  0  0
   -2.6863   -1.2216    0.8583 H   0  0  0  0  0  0  0  0  0  0  0  0
   -0.1368   -0.6974    0.0716 C   0  0  0  0  0  0  0  0  0  0  0  0
   -1.3115    0.9320    0.8542 H   0  0  0  0  0  0  0  0  0  0  0  0
   -1.4139    0.8089   -0.8613 H   0  0  0  0  0  0  0  0  0  0  0  0
   -0.1589   -1.4267    1.0602 H   0  0  0  0  0  0  0  0  0  0  0  0
    0.7816   -0.1336   -0.0383 H   0  0  0  0  0  0  0  0  0  0  0  0
   -0.0622   -1.3292   -0.7600 H   0  0  0  0  0  0  0  0  0  0  0  0
  1  3  1  0  0  0  0
  1  5  1  0  0  0  0
  2  1  1  0  0  0  0
  2  8  1  0  0  0  0
  4  1  1  0  0  0  0
  6  2  1  0  0  0  0
  6  9  1  0  0  0  0
  6 10  1  0  0  0  0
  7  2  1  0  0  0  0
  9 12  1  0  0  0  0
 11  6  1  0  0  0  0
 13  9  1  0  0  0  0
 14  9  1  0  0  0  0
M  END
$$$$
