14
butane_opt
C  -3.964775   0.266492   0.072643
C  -2.676554  -0.628266  -0.016399
H  -4.783025  -0.282933   0.091481
H  -4.028675   0.961372  -0.858934
H  -3.900742   0.882840   0.901106
C  -1.405849   0.173244  -0.020493
H  -2.732808  -1.371863  -0.942579
H  -2.591060  -1.152959   0.766991
C  -0.180565  -0.680834   0.068400
H  -1.430594   0.822979   0.793763
H  -1.234753   0.810282  -0.910847
H  -0.158481  -1.362203   1.025796
H   0.713373  -0.120013  -0.028592
H  -0.144415  -1.215425  -0.658157
