14
butane_opt
C  -3.948189   0.251690   0.026962
C  -2.699070  -0.612456   0.036324
H  -4.854319  -0.317408   0.043485
H  -3.947243   0.835378  -0.853895
H  -3.959189   0.968000   0.918660
C  -1.407765   0.202465  -0.013508
H  -2.761621  -1.293445  -0.807893
H  -2.743529  -1.242016   0.928637
C  -0.146070  -0.705638   0.051139
H  -1.467039   0.862642   0.815243
H  -1.374362   0.889416  -0.928642
H  -0.133943  -1.254719   0.875874
H   0.747825  -0.122893   0.084972
H  -0.114155  -1.434086  -0.851178
