butane_opt
 OpenBabel08242015413D

 14 13  0  0  0  0  0  0  0  0999 V2000
   -3.9434    0.2511    0.0067 C   0  0  0  0  0  0  0  0  0  0  0  0
   -2.7057   -0.5957    0.0611 C   0  0  0  0  0  0  0  0  0  0  0  0
   -4.8644   -0.3617   -0.0788 H   0  0  0  0  0  0  0  0  0  0  0  0
   -3.9145    0.7974   -0.8689 H   0  0  0  0  0  0  0  0  0  0  0  0
   -4.0760    0.9955    0.9178 H   0  0  0  0  0  0  0  0  0  0  0  0
   -1.4066    0.1960    0.0254 C   0  0  0  0  0  0  0  0  0  0  0  0
   -2.6954   -1.2838   -0.8055 H   0  0  0  0  0  0  0  0  0  0  0  0
   -2.7615   -1.2576    0.9619 H   0  0  0  0  0  0  0  0  0  0  0  0
   -0.1448   -0.7061    0.0175 C   0  0  0  0  0  0  0  0  0  0  0  0
   -1.4119    0.8263    0.8631 H   0  0  0  0  0  0  0  0  0  0  0  0
   -1.3908    0.8605   -0.9123 H   0  0  0  0  0  0  0  0  0  0  0  0
   -0.0820   -1.3098    0.9152 H   0  0  0  0  0  0  0  0  0  0  0  0
    0.7568   -0.1225   -0.0384 H   0  0  0  0  0  0  0  0  0  0  0  0
   -0.1655   -1.3619   -0.8310 H   0  0  0  0  0  0  0  0  0  0  0  0
  1  2  1  0  0  0  0
  1  5  1  0  0  0  0
  2  8  1  0  0  0  0
  3  1  1  0  0  0  0
  4  1  1  0  0  0  0
  6  2  1  0  0  0  0
  6 10  1  0  0  0  0
  7  2  1  0  0  0  0
  9  6  1  0  0  0  0
  9 12  1  0  0  0  0
 11  6  1  0  0  0  0
 13  9  1  0  0  0  0
 14  9  1  0  0  0  0
M  END
$$$$
