14
butane_opt
C  -3.927240   0.286533  -0.019969
C  -2.695750  -0.626444   0.069006
H  -4.872793  -0.317824   0.166202
H  -3.987021   1.041948  -0.965873
H  -3.948579   0.761395   0.704405
C  -1.392753   0.149006   0.051340
H  -2.629373  -1.211430  -0.695853
H  -2.721325  -1.293669   0.989367
C  -0.192482  -0.677293  -0.001002
H  -1.333523   0.830610   0.917393
H  -1.418909   0.812017  -0.794668
H  -0.215049  -1.074234   0.748137
H   0.735617  -0.073947   0.139941
H  -0.138679  -1.537460  -0.999251
