14
butane_opt
C  -3.952524   0.251306  -0.018040
C  -2.704874  -0.612697   0.075587
H  -4.852680  -0.354631  -0.040382
H  -3.911178   0.981033  -0.984258
H  -4.032314   0.804295   0.773058
C  -1.415045   0.207408   0.073999
H  -2.813347  -1.268963  -0.795345
H  -2.722550  -1.243950   0.964319
C  -0.130882  -0.689279  -0.014366
H  -1.343552   0.932464   0.998334
H  -1.439754   0.804048  -0.799906
H  -0.002408  -1.432375   0.929527
H   0.674725  -0.171652  -0.135043
H  -0.142197  -1.408335  -0.894152
