14
butane_opt
C  -3.964737   0.291405   0.001237
C  -2.697516  -0.626316   0.084967
H  -4.870028  -0.318579  -0.023979
H  -3.994912   0.913051  -0.902965
H  -4.006243   0.901680   0.837853
C  -1.387067   0.155660   0.017526
H  -2.760219  -1.345732  -0.824427
H  -2.727338  -1.299235   0.974368
C  -0.162427  -0.675907   0.006579
H  -1.298979   0.801769   0.822177
H  -1.377227   0.832291  -0.887935
H  -0.191756  -1.177016   0.797672
H   0.734824  -0.069765   0.215851
H  -0.002183  -1.443255  -0.906499
