butane_opt
 OpenBabel08242015413D

 14 13  0  0  0  0  0  0  0  0999 V2000
   -3.9648    0.2665    0.0726 C   0  0  0  0  0  0  0  0  0  0  0  0
   -2.6766   -0.6283   -0.0164 C   0  0  0  0  0  0  0  0  0  0  0  0
   -4.7830   -0.2829    0.0915 H   0  0  0  0  0  0  0  0  0  0  0  0
   -4.0287    0.9614   -0.8589 H   0  0  0  0  0  0  0  0  0  0  0  0
   -3.9007    0.8828    0.9011 H   0  0  0  0  0  0  0  0  0  0  0  0
   -1.4058    0.1732   -0.0205 C   0  0  0  0  0  0  0  0  0  0  0  0
   -2.7328   -1.3719   -0.9426 H   0  0  0  0  0  0  0  0  0  0  0  0
   -2.5911   -1.1530    0.7670 H   0  0  0  0  0  0  0  0  0  0  0  0
   -0.1806   -0.6808    0.0684 C   0  0  0  0  0  0  0  0  0  0  0  0
   -1.4306    0.8230    0.7938 H   0  0  0  0  0  0  0  0  0  0  0  0
   -1.2348    0.8103   -0.9108 H   0  0  0  0  0  0  0  0  0  0  0  0
   -0.1585   -1.3622    1.0258 H   0  0  0  0  0  0  0  0  0  0  0  0
    0.7134   -0.1200   -0.0286 H   0  0  0  0  0  0  0  0  0  0  0  0
   -0.1444   -1.2154   -0.6582 H   0  0  0  0  0  0  0  0  0  0  0  0
  1  3  1  0  0  0  0
  1  5  1  0  0  0  0
  2  1  1  0  0  0  0
  2  8  1  0  0  0  0
  4  1  1  0  0  0  0
  6  2  1  0  0  0  0
  6  9  1  0  0  0  0
  6 10  1  0  0  0  0
  7  2  1  0  0  0  0
  9 12  1  0  0  0  0
 11  6  1  0  0  0  0
 13  9  1  0  0  0  0
 14  9  1  0  0  0  0
M  END
$$$$
