14
butane_opt
C  -3.944139   0.275065   0.095932
C  -2.676931  -0.625594  -0.023588
H  -4.921835  -0.342229   0.078296
H  -3.960246   0.866033  -0.808339
H  -3.914541   0.996940   0.965948
C  -1.399538   0.167580  -0.082877
H  -2.740179  -1.261624  -0.896857
H  -2.615006  -1.291737   0.910920
C  -0.179740  -0.680490   0.091777
H  -1.437572   0.848214   0.732981
H  -1.362920   0.810495  -1.014508
H  -0.350526  -1.229441   0.996796
H   0.759340  -0.083916   0.324658
H  -0.070309  -1.437680  -0.823929
