14
butane_opt
C  -3.942392   0.257754  -0.044410
C  -2.701934  -0.614269   0.111607
H  -4.871918  -0.378704  -0.034623
H  -3.949300   0.911478  -1.001942
H  -4.093614   0.862832   0.752798
C  -1.410923   0.210008   0.092722
H  -2.721872  -1.316809  -0.802942
H  -2.778851  -1.218558   0.980020
C  -0.139042  -0.693094  -0.034797
H  -1.358456   0.908108   0.955253
H  -1.458590   0.741933  -0.726618
H  -0.013159  -1.413104   0.897485
H   0.682371  -0.143394  -0.219401
H  -0.118986  -1.353416  -0.865659
