butane_opt
 OpenBabel08242015413D

 14 13  0  0  0  0  0  0  0  0999 V2000
   -3.9525    0.2513   -0.0180 C   0  0  0  0  0  0  0  0  0  0  0  0
   -2.7049   -0.6127    0.0756 C   0  0  0  0  0  0  0  0  0  0  0  0
   -4.8527   -0.3546   -0.0404 H   0  0  0  0  0  0  0  0  0  0  0  0
   -3.9112    0.9810   -0.9843 H   0  0  0  0  0  0  0  0  0  0  0  0
   -4.0323    0.8043    0.7731 H   0  0  0  0  0  0  0  0  0  0  0  0
   -1.4150    0.2074    0.0740 C   0  0  0  0  0  0  0  0  0  0  0  0
   -2.8133   -1.2690   -0.7953 H   0  0  0  0  0  0  0  0  0  0  0  0
   -2.7226   -1.2439    0.9643 H   0  0  0  0  0  0  0  0  0  0  0  0
   -0.1309   -0.6893   -0.0144 C   0  0  0  0  0  0  0  0  0  0  0  0
   -1.3436    0.9325    0.9983 H   0  0  0  0  0  0  0  0  0  0  0  0
   -1.4398    0.8040   -0.7999 H   0  0  0  0  0  0  0  0  0  0  0  0
   -0.0024   -1.4324    0.9295 H   0  0  0  0  0  0  0  0  0  0  0  0
    0.6747   -0.1717   -0.1350 H   0  0  0  0  0  0  0  0  0  0  0  0
   -0.1422   -1.4083   -0.8942 H   0  0  0  0  0  0  0  0  0  0  0  0
  1  2  1  0  0  0  0
  1  5  1  0  0  0  0
  2  8  1  0  0  0  0
  3  1  1  0  0  0  0
  4  1  1  0  0  0  0
  6  2  1  0  0  0  0
  6 10  1  0  0  0  0
  7  2  1  0  0  0  0
  9  6  1  0  0  0  0
  9 12  1  0  0  0  0
 11  6  1  0  0  0  0
 13  9  1  0  0  0  0
 14  9  1  0  0  0  0
M  END
$$$$
