14
butane_opt
C  -3.920410   0.241463   0.004398
C  -2.700381  -0.593384   0.044948
H  -4.832776  -0.352100   0.245909
H  -3.935463   1.102068  -1.075469
H  -3.830937   0.697682   0.735062
C  -1.435579   0.200296   0.057572
H  -2.664873  -1.359909  -0.831923
H  -2.753054  -1.170915   0.872293
C  -0.163901  -0.714255   0.008569
H  -1.354034   0.959964   0.950900
H  -1.450416   0.841915  -0.850846
H  -0.175154  -1.302936   0.884639
H   0.725356  -0.104354  -0.002189
H  -0.108351  -1.391329  -0.893953
