14
butane_opt
C  -3.944746   0.269459  -0.010385
C  -2.691940  -0.609129   0.068157
H  -4.861940  -0.323636   0.100584
H  -3.969898   0.889653  -0.870957
H  -3.967208   0.900503   0.811443
C  -1.401439   0.164716   0.020958
H  -2.689112  -1.294219  -0.749570
H  -2.697341  -1.275982   0.991615
C  -0.166641  -0.681536   0.017150
H  -1.392342   0.828741   0.860343
H  -1.413312   0.838847  -0.894343
H  -0.195048  -1.166054   0.830643
H   0.747043  -0.090750   0.150255
H  -0.131309  -1.505741  -0.955365
