butane_opt
 OpenBabel08242015413D

 14 13  0  0  0  0  0  0  0  0999 V2000
   -3.9290    0.2790   -0.0268 C   0  0  0  0  0  0  0  0  0  0  0  0
   -2.6997   -0.6278    0.0957 C   0  0  0  0  0  0  0  0  0  0  0  0
   -4.8056   -0.3159   -0.0972 H   0  0  0  0  0  0  0  0  0  0  0  0
   -3.8301    0.9188   -0.9421 H   0  0  0  0  0  0  0  0  0  0  0  0
   -4.0429    0.9234    0.7874 H   0  0  0  0  0  0  0  0  0  0  0  0
   -1.4062    0.1792    0.0731 C   0  0  0  0  0  0  0  0  0  0  0  0
   -2.6104   -1.3170   -0.7576 H   0  0  0  0  0  0  0  0  0  0  0  0
   -2.6996   -1.2941    1.0237 H   0  0  0  0  0  0  0  0  0  0  0  0
   -0.1861   -0.6824   -0.0219 C   0  0  0  0  0  0  0  0  0  0  0  0
   -1.2623    0.8152    0.9013 H   0  0  0  0  0  0  0  0  0  0  0  0
   -1.4863    0.7346   -0.8178 H   0  0  0  0  0  0  0  0  0  0  0  0
   -0.0922   -1.2911    0.8601 H   0  0  0  0  0  0  0  0  0  0  0  0
    0.7175   -0.0884   -0.0256 H   0  0  0  0  0  0  0  0  0  0  0  0
   -0.2662   -1.3230   -0.9179 H   0  0  0  0  0  0  0  0  0  0  0  0
  1  2  1  0  0  0  0
  1  5  1  0  0  0  0
  2  8  1  0  0  0  0
  3  1  1  0  0  0  0
  4  1  1  0  0  0  0
  6  2  1  0  0  0  0
  6 10  1  0  0  0  0
  7  2  1  0  0  0  0
  9  6  1  0  0  0  0
  9 12  1  0  0  0  0
 11  6  1  0  0  0  0
 13  9  1  0  0  0  0
 14  9  1  0  0  0  0
M  END
$$$$
