butane_opt
 OpenBabel08242015413D

 14 13  0  0  0  0  0  0  0  0999 V2000
   -3.9436    0.2773   -0.0197 C   0  0  0  0  0  0  0  0  0  0  0  0
   -2.6991   -0.6264    0.0559 C   0  0  0  0  0  0  0  0  0  0  0  0
   -4.8330   -0.2969    0.2525 H   0  0  0  0  0  0  0  0  0  0  0  0
   -4.0909    1.0737   -1.0455 H   0  0  0  0  0  0  0  0  0  0  0  0
   -3.8749    0.8135    0.7526 H   0  0  0  0  0  0  0  0  0  0  0  0
   -1.3989    0.1599    0.0386 C   0  0  0  0  0  0  0  0  0  0  0  0
   -2.7329   -1.2471   -0.7704 H   0  0  0  0  0  0  0  0  0  0  0  0
   -2.6861   -1.3694    1.0422 H   0  0  0  0  0  0  0  0  0  0  0  0
   -0.1565   -0.6687    0.0098 C   0  0  0  0  0  0  0  0  0  0  0  0
   -1.4371    0.9042    0.9803 H   0  0  0  0  0  0  0  0  0  0  0  0
   -1.4023    0.7151   -0.7831 H   0  0  0  0  0  0  0  0  0  0  0  0
   -0.1555   -1.1742    0.7823 H   0  0  0  0  0  0  0  0  0  0  0  0
    0.7745   -0.0663    0.1403 H   0  0  0  0  0  0  0  0  0  0  0  0
   -0.2161   -1.5132   -0.9636 H   0  0  0  0  0  0  0  0  0  0  0  0
  1  2  1  0  0  0  0
  1  3  1  0  0  0  0
  1  5  1  0  0  0  0
  2  8  1  0  0  0  0
  4  1  1  0  0  0  0
  6  2  1  0  0  0  0
  6 10  1  0  0  0  0
  7  2  1  0  0  0  0
  9  6  1  0  0  0  0
  9 13  1  0  0  0  0
  9 12  1  0  0  0  0
 11  6  1  0  0  0  0
 14  9  1  0  0  0  0
M  END
$$$$
