butane_opt
 OpenBabel08242015413D

 14 13  0  0  0  0  0  0  0  0999 V2000
   -3.9552    0.2751    0.0570 C   0  0  0  0  0  0  0  0  0  0  0  0
   -2.6786   -0.6149   -0.0352 C   0  0  0  0  0  0  0  0  0  0  0  0
   -4.8118   -0.2965    0.1834 H   0  0  0  0  0  0  0  0  0  0  0  0
   -4.1470    0.9047   -0.8289 H   0  0  0  0  0  0  0  0  0  0  0  0
   -3.8768    0.9485    0.9784 H   0  0  0  0  0  0  0  0  0  0  0  0
   -1.4030    0.1521   -0.0209 C   0  0  0  0  0  0  0  0  0  0  0  0
   -2.6705   -1.3760   -0.9114 H   0  0  0  0  0  0  0  0  0  0  0  0
   -2.6593   -1.2575    0.8446 H   0  0  0  0  0  0  0  0  0  0  0  0
   -0.1648   -0.6744    0.0810 C   0  0  0  0  0  0  0  0  0  0  0  0
   -1.3786    0.8446    0.8115 H   0  0  0  0  0  0  0  0  0  0  0  0
   -1.3819    0.7581   -0.9053 H   0  0  0  0  0  0  0  0  0  0  0  0
   -0.2670   -1.3862    1.0843 H   0  0  0  0  0  0  0  0  0  0  0  0
    0.7956   -0.0509   -0.0806 H   0  0  0  0  0  0  0  0  0  0  0  0
   -0.2030   -1.1957   -0.7092 H   0  0  0  0  0  0  0  0  0  0  0  0
  1  3  1  0  0  0  0
  1  5  1  0  0  0  0
  2  6  1  0  0  0  0
  2  1  1  0  0  0  0
  2  8  1  0  0  0  0
  4  1  1  0  0  0  0
  6  9  1  0  0  0  0
  6 10  1  0  0  0  0
  7  2  1  0  0  0  0
  9 12  1  0  0  0  0
 11  6  1  0  0  0  0
 13  9  1  0  0  0  0
 14  9  1  0  0  0  0
M  END
$$$$
