butane_opt
 OpenBabel08242015413D

 14 13  0  0  0  0  0  0  0  0999 V2000
   -3.9489    0.2730   -0.0341 C   0  0  0  0  0  0  0  0  0  0  0  0
   -2.6732   -0.6350    0.0583 C   0  0  0  0  0  0  0  0  0  0  0  0
   -4.8883   -0.3023    0.2597 H   0  0  0  0  0  0  0  0  0  0  0  0
   -4.0574    1.0726   -1.0605 H   0  0  0  0  0  0  0  0  0  0  0  0
   -3.8779    0.7593    0.6779 H   0  0  0  0  0  0  0  0  0  0  0  0
   -1.3912    0.1718    0.0874 C   0  0  0  0  0  0  0  0  0  0  0  0
   -2.6572   -1.2085   -0.7516 H   0  0  0  0  0  0  0  0  0  0  0  0
   -2.6697   -1.3038    1.0068 H   0  0  0  0  0  0  0  0  0  0  0  0
   -0.1931   -0.6846   -0.0164 C   0  0  0  0  0  0  0  0  0  0  0  0
   -1.3869    0.9040    1.0060 H   0  0  0  0  0  0  0  0  0  0  0  0
   -1.4334    0.7586   -0.7442 H   0  0  0  0  0  0  0  0  0  0  0  0
   -0.1274   -1.1883    0.7611 H   0  0  0  0  0  0  0  0  0  0  0  0
    0.7099   -0.0695   -0.0139 H   0  0  0  0  0  0  0  0  0  0  0  0
   -0.1581   -1.3936   -0.8782 H   0  0  0  0  0  0  0  0  0  0  0  0
  1  2  1  0  0  0  0
  1  3  1  0  0  0  0
  1  5  1  0  0  0  0
  2  6  1  0  0  0  0
  2  8  1  0  0  0  0
  4  1  1  0  0  0  0
  6 10  1  0  0  0  0
  7  2  1  0  0  0  0
  9 13  1  0  0  0  0
  9  6  1  0  0  0  0
  9 12  1  0  0  0  0
 11  6  1  0  0  0  0
 14  9  1  0  0  0  0
M  END
$$$$
