14
butane_opt
C  -3.943242   0.252642   0.023119
C  -2.709850  -0.611220   0.051904
H  -4.846846  -0.325815  -0.172003
H  -3.877521   0.642986  -0.724026
H  -4.082098   1.124790   1.005763
C  -1.401636   0.221902   0.001573
H  -2.696601  -1.289604  -0.775617
H  -2.793205  -1.222375   0.909203
C  -0.163959  -0.718887   0.037193
H  -1.388586   0.759677   0.722216
H  -1.314420   0.934948  -0.985350
H  -0.054900  -1.389171   0.976052
H   0.752153  -0.110053   0.014945
H  -0.096931  -1.339644  -0.858176
