14
butane_opt
C  -3.944671   0.288553   0.020760
C  -2.671546  -0.626165   0.063514
H  -4.873868  -0.380819  -0.139055
H  -3.839740   0.706420  -0.733539
H  -4.095829   1.111059   0.982077
C  -1.407118   0.160851  -0.023736
H  -2.682017  -1.304026  -0.838011
H  -2.739214  -1.286357   0.977199
C  -0.178929  -0.678260   0.033701
H  -1.375297   0.846140   0.833465
H  -1.413706   0.806687  -0.937385
H  -0.254359  -1.360999   0.960417
H   0.815788  -0.005611   0.058035
H  -0.145936  -1.342424  -0.820370
