14
butane_opt
C  -3.955205   0.275074   0.056956
C  -2.678599  -0.614904  -0.035200
H  -4.811768  -0.296541   0.183435
H  -4.147048   0.904699  -0.828861
H  -3.876762   0.948519   0.978397
C  -1.403000   0.152135  -0.020880
H  -2.670516  -1.375983  -0.911383
H  -2.659286  -1.257529   0.844633
C  -0.164779  -0.674381   0.081037
H  -1.378584   0.844566   0.811509
H  -1.381916   0.758094  -0.905349
H  -0.267012  -1.386186   1.084274
H   0.795584  -0.050861  -0.080629
H  -0.203019  -1.195730  -0.709215
