14
butane_opt
C  -3.955513   0.238842  -0.036585
C  -2.718729  -0.598537   0.086462
H  -4.872557  -0.344732   0.076800
H  -3.935405   0.967618  -1.038812
H  -3.931714   0.850517   0.806369
C  -1.413248   0.229560   0.072080
H  -2.707470  -1.271023  -0.791073
H  -2.818646  -1.205984   0.986001
C  -0.125110  -0.727201  -0.031724
H  -1.335454   0.969037   0.998082
H  -1.422366   0.700242  -0.704196
H  -0.008638  -1.420247   0.945005
H   0.777114  -0.123742  -0.097905
H  -0.205122  -1.300709  -0.816939
