butane_opt
 OpenBabel08242015413D

 14 13  0  0  0  0  0  0  0  0999 V2000
   -3.9634    0.2805   -0.0129 C   0  0  0  0  0  0  0  0  0  0  0  0
   -2.6884   -0.6617    0.0474 C   0  0  0  0  0  0  0  0  0  0  0  0
   -4.7884   -0.2553    0.1010 H   0  0  0  0  0  0  0  0  0  0  0  0
   -3.9966    0.9556   -0.9608 H   0  0  0  0  0  0  0  0  0  0  0  0
   -3.9976    0.9406    0.8498 H   0  0  0  0  0  0  0  0  0  0  0  0
   -1.4061    0.1748    0.0578 C   0  0  0  0  0  0  0  0  0  0  0  0
   -2.7302   -1.2664   -0.7453 H   0  0  0  0  0  0  0  0  0  0  0  0
   -2.7382   -1.2563    0.9098 H   0  0  0  0  0  0  0  0  0  0  0  0
   -0.1500   -0.6724    0.0071 C   0  0  0  0  0  0  0  0  0  0  0  0
   -1.3639    0.8828    0.9247 H   0  0  0  0  0  0  0  0  0  0  0  0
   -1.4063    0.8169   -0.7957 H   0  0  0  0  0  0  0  0  0  0  0  0
   -0.0927   -1.3609    0.9232 H   0  0  0  0  0  0  0  0  0  0  0  0
    0.7794   -0.0565   -0.1032 H   0  0  0  0  0  0  0  0  0  0  0  0
   -0.2110   -1.3140   -0.8533 H   0  0  0  0  0  0  0  0  0  0  0  0
  1  2  1  0  0  0  0
  1  3  1  0  0  0  0
  1  5  1  0  0  0  0
  2  6  1  0  0  0  0
  2  8  1  0  0  0  0
  4  1  1  0  0  0  0
  6 10  1  0  0  0  0
  7  2  1  0  0  0  0
  9  6  1  0  0  0  0
  9 12  1  0  0  0  0
 11  6  1  0  0  0  0
 13  9  1  0  0  0  0
 14  9  1  0  0  0  0
M  END
$$$$
