butane_opt
 OpenBabel08242015413D

 14 13  0  0  0  0  0  0  0  0999 V2000
   -3.9663    0.2829    0.0386 C   0  0  0  0  0  0  0  0  0  0  0  0
   -2.6941   -0.6272    0.0068 C   0  0  0  0  0  0  0  0  0  0  0  0
   -4.8480   -0.3029   -0.0033 H   0  0  0  0  0  0  0  0  0  0  0  0
   -4.0110    0.7027   -0.7402 H   0  0  0  0  0  0  0  0  0  0  0  0
   -4.0251    1.1545    1.0273 H   0  0  0  0  0  0  0  0  0  0  0  0
   -1.3980    0.1502   -0.0167 C   0  0  0  0  0  0  0  0  0  0  0  0
   -2.6325   -1.3828   -0.8531 H   0  0  0  0  0  0  0  0  0  0  0  0
   -2.6770   -1.2057    0.8430 H   0  0  0  0  0  0  0  0  0  0  0  0
   -0.1620   -0.6742    0.0629 C   0  0  0  0  0  0  0  0  0  0  0  0
   -1.3990    0.8027    0.8058 H   0  0  0  0  0  0  0  0  0  0  0  0
   -1.3280    0.7605   -0.9392 H   0  0  0  0  0  0  0  0  0  0  0  0
   -0.0944   -1.4561    1.0421 H   0  0  0  0  0  0  0  0  0  0  0  0
    0.7706   -0.0187   -0.1666 H   0  0  0  0  0  0  0  0  0  0  0  0
   -0.1476   -1.0863   -0.6281 H   0  0  0  0  0  0  0  0  0  0  0  0
  1  5  1  0  0  0  0
  2  1  1  0  0  0  0
  2  8  1  0  0  0  0
  3  1  1  0  0  0  0
  4  1  1  0  0  0  0
  6  2  1  0  0  0  0
  6  9  1  0  0  0  0
  6 10  1  0  0  0  0
  7  2  1  0  0  0  0
  9 12  1  0  0  0  0
 11  6  1  0  0  0  0
 13  9  1  0  0  0  0
 14  9  1  0  0  0  0
M  END
$$$$
