14
butane_opt
C  -3.908826   0.246032  -0.019591
C  -2.706862  -0.598710   0.075170
H  -4.820988  -0.356016   0.047385
H  -3.864916   0.973076  -1.023843
H  -3.962413   0.838389   0.744460
C  -1.436212   0.210220   0.062676
H  -2.693665  -1.256388  -0.737377
H  -2.782537  -1.300045   0.993358
C  -0.158794  -0.710854  -0.010468
H  -1.370458   1.057368   1.007582
H  -1.408629   0.699068  -0.761449
H  -0.097141  -1.374685   0.909980
H   0.738808  -0.099803  -0.158087
H  -0.229429  -1.410993  -0.886012
