butane_opt
 OpenBabel08242015413D

 14 13  0  0  0  0  0  0  0  0999 V2000
   -3.9179    0.2518    0.0439 C   0  0  0  0  0  0  0  0  0  0  0  0
   -2.6816   -0.5998    0.0268 C   0  0  0  0  0  0  0  0  0  0  0  0
   -4.8800   -0.3636    0.0722 H   0  0  0  0  0  0  0  0  0  0  0  0
   -4.0106    0.8586   -0.8187 H   0  0  0  0  0  0  0  0  0  0  0  0
   -3.9039    0.8903    0.8888 H   0  0  0  0  0  0  0  0  0  0  0  0
   -1.4147    0.1907   -0.0546 C   0  0  0  0  0  0  0  0  0  0  0  0
   -2.8263   -1.2687   -0.7702 H   0  0  0  0  0  0  0  0  0  0  0  0
   -2.6521   -1.2466    0.9352 H   0  0  0  0  0  0  0  0  0  0  0  0
   -0.1835   -0.7034    0.0623 C   0  0  0  0  0  0  0  0  0  0  0  0
   -1.4384    0.9370    0.8555 H   0  0  0  0  0  0  0  0  0  0  0  0
   -1.3797    0.8595   -0.9739 H   0  0  0  0  0  0  0  0  0  0  0  0
   -0.2528   -1.1831    0.8659 H   0  0  0  0  0  0  0  0  0  0  0  0
    0.6791   -0.1252    0.2808 H   0  0  0  0  0  0  0  0  0  0  0  0
    0.0191   -1.5231   -0.8670 H   0  0  0  0  0  0  0  0  0  0  0  0
  1  3  1  0  0  0  0
  1  5  1  0  0  0  0
  2  1  1  0  0  0  0
  2  8  1  0  0  0  0
  4  1  1  0  0  0  0
  6  2  1  0  0  0  0
  6  9  1  0  0  0  0
  6 10  1  0  0  0  0
  7  2  1  0  0  0  0
  9 13  1  0  0  0  0
  9 12  1  0  0  0  0
 11  6  1  0  0  0  0
 14  9  1  0  0  0  0
M  END
$$$$
