14
butane_opt
C  -3.942784   0.246027  -0.054264
C  -2.711232  -0.591621   0.093131
H  -4.902277  -0.413019   0.012473
H  -3.982971   0.905207  -0.963179
H  -4.054038   0.931285   0.817301
C  -1.401191   0.197022   0.103446
H  -2.713438  -1.279046  -0.737993
H  -2.821855  -1.193207   0.947348
C  -0.126518  -0.710807  -0.025852
H  -1.385836   0.879805   0.934583
H  -1.508851   0.814915  -0.769755
H   0.048150  -1.388698   0.911243
H   0.751593  -0.101934  -0.260664
H  -0.256324  -1.319941  -0.838695
