butane_opt
 OpenBabel08242015413D

 14 13  0  0  0  0  0  0  0  0999 V2000
   -3.9088    0.2460   -0.0196 C   0  0  0  0  0  0  0  0  0  0  0  0
   -2.7069   -0.5987    0.0752 C   0  0  0  0  0  0  0  0  0  0  0  0
   -4.8210   -0.3560    0.0474 H   0  0  0  0  0  0  0  0  0  0  0  0
   -3.8649    0.9731   -1.0238 H   0  0  0  0  0  0  0  0  0  0  0  0
   -3.9624    0.8384    0.7445 H   0  0  0  0  0  0  0  0  0  0  0  0
   -1.4362    0.2102    0.0627 C   0  0  0  0  0  0  0  0  0  0  0  0
   -2.6937   -1.2564   -0.7374 H   0  0  0  0  0  0  0  0  0  0  0  0
   -2.7825   -1.3000    0.9934 H   0  0  0  0  0  0  0  0  0  0  0  0
   -0.1588   -0.7109   -0.0105 C   0  0  0  0  0  0  0  0  0  0  0  0
   -1.3705    1.0574    1.0076 H   0  0  0  0  0  0  0  0  0  0  0  0
   -1.4086    0.6991   -0.7614 H   0  0  0  0  0  0  0  0  0  0  0  0
   -0.0971   -1.3747    0.9100 H   0  0  0  0  0  0  0  0  0  0  0  0
    0.7388   -0.0998   -0.1581 H   0  0  0  0  0  0  0  0  0  0  0  0
   -0.2294   -1.4110   -0.8860 H   0  0  0  0  0  0  0  0  0  0  0  0
  1  3  1  0  0  0  0
  1  2  1  0  0  0  0
  1  5  1  0  0  0  0
  2  8  1  0  0  0  0
  4  1  1  0  0  0  0
  6  2  1  0  0  0  0
  6 10  1  0  0  0  0
  7  2  1  0  0  0  0
  9  6  1  0  0  0  0
  9 12  1  0  0  0  0
 11  6  1  0  0  0  0
 13  9  1  0  0  0  0
 14  9  1  0  0  0  0
M  END
$$$$
