14
butane_opt
C  -3.915490   0.238285  -0.040114
C  -2.702508  -0.596666   0.099068
H  -4.845741  -0.385073  -0.177162
H  -3.891024   0.770317  -0.870812
H  -4.074682   1.028601   0.895204
C  -1.437296   0.206519   0.047708
H  -2.694911  -1.114903  -0.605899
H  -2.757140  -1.312309   1.090490
C  -0.151960  -0.708176  -0.004142
H  -1.356819   0.920900   0.966186
H  -1.446904   0.803408  -0.851576
H  -0.066464  -1.262595   0.791677
H   0.758203  -0.123723  -0.096428
H  -0.149165  -1.487949  -0.940447
