butane_opt
 OpenBabel08242015413D

 14 13  0  0  0  0  0  0  0  0999 V2000
   -3.9385    0.2719    0.0393 C   0  0  0  0  0  0  0  0  0  0  0  0
   -2.7053   -0.6155    0.0177 C   0  0  0  0  0  0  0  0  0  0  0  0
   -4.8645   -0.3555    0.0845 H   0  0  0  0  0  0  0  0  0  0  0  0
   -3.9547    0.8873   -0.8368 H   0  0  0  0  0  0  0  0  0  0  0  0
   -3.9819    0.9150    0.8814 H   0  0  0  0  0  0  0  0  0  0  0  0
   -1.4024    0.1785   -0.0189 C   0  0  0  0  0  0  0  0  0  0  0  0
   -2.7016   -1.2841   -0.8252 H   0  0  0  0  0  0  0  0  0  0  0  0
   -2.6779   -1.2654    0.9277 H   0  0  0  0  0  0  0  0  0  0  0  0
   -0.1662   -0.6942    0.0474 C   0  0  0  0  0  0  0  0  0  0  0  0
   -1.4030    0.8849    0.8780 H   0  0  0  0  0  0  0  0  0  0  0  0
   -1.3489    0.8165   -0.9214 H   0  0  0  0  0  0  0  0  0  0  0  0
   -0.2117   -1.2881    0.9336 H   0  0  0  0  0  0  0  0  0  0  0  0
    0.7777   -0.0923    0.1101 H   0  0  0  0  0  0  0  0  0  0  0  0
   -0.1076   -1.3804   -0.8215 H   0  0  0  0  0  0  0  0  0  0  0  0
  1  3  1  0  0  0  0
  1  5  1  0  0  0  0
  2  1  1  0  0  0  0
  2  8  1  0  0  0  0
  4  1  1  0  0  0  0
  6  2  1  0  0  0  0
  6  9  1  0  0  0  0
  6 10  1  0  0  0  0
  7  2  1  0  0  0  0
  9 13  1  0  0  0  0
  9 12  1  0  0  0  0
 11  6  1  0  0  0  0
 14  9  1  0  0  0  0
M  END
$$$$
