14
butane_opt
C  -3.959027   0.278823   0.035041
C  -2.678516  -0.618045   0.034467
H  -4.840272  -0.308553  -0.122908
H  -3.934200   0.701313  -0.737130
H  -3.920600   1.189017   1.023401
C  -1.397895   0.159166  -0.038333
H  -2.622723  -1.298621  -0.784510
H  -2.743033  -1.345105   0.965093
C  -0.185866  -0.687333   0.058896
H  -1.354854   0.798347   0.802672
H  -1.313399   0.835176  -0.942102
H  -0.283616  -1.288771   0.965213
H   0.786598   0.004080   0.028278
H  -0.151055  -1.342699  -0.820786
