butane_opt
 OpenBabel08242015413D

 14 13  0  0  0  0  0  0  0  0999 V2000
   -3.9590    0.2788    0.0350 C   0  0  0  0  0  0  0  0  0  0  0  0
   -2.6785   -0.6180    0.0345 C   0  0  0  0  0  0  0  0  0  0  0  0
   -4.8403   -0.3086   -0.1229 H   0  0  0  0  0  0  0  0  0  0  0  0
   -3.9342    0.7013   -0.7371 H   0  0  0  0  0  0  0  0  0  0  0  0
   -3.9206    1.1890    1.0234 H   0  0  0  0  0  0  0  0  0  0  0  0
   -1.3979    0.1592   -0.0383 C   0  0  0  0  0  0  0  0  0  0  0  0
   -2.6227   -1.2986   -0.7845 H   0  0  0  0  0  0  0  0  0  0  0  0
   -2.7430   -1.3451    0.9651 H   0  0  0  0  0  0  0  0  0  0  0  0
   -0.1859   -0.6873    0.0589 C   0  0  0  0  0  0  0  0  0  0  0  0
   -1.3549    0.7983    0.8027 H   0  0  0  0  0  0  0  0  0  0  0  0
   -1.3134    0.8352   -0.9421 H   0  0  0  0  0  0  0  0  0  0  0  0
   -0.2836   -1.2888    0.9652 H   0  0  0  0  0  0  0  0  0  0  0  0
    0.7866    0.0041    0.0283 H   0  0  0  0  0  0  0  0  0  0  0  0
   -0.1511   -1.3427   -0.8208 H   0  0  0  0  0  0  0  0  0  0  0  0
  1  5  1  0  0  0  0
  2  1  1  0  0  0  0
  2  8  1  0  0  0  0
  3  1  1  0  0  0  0
  4  1  1  0  0  0  0
  6  2  1  0  0  0  0
  6  9  1  0  0  0  0
  6 10  1  0  0  0  0
  7  2  1  0  0  0  0
  9 12  1  0  0  0  0
 11  6  1  0  0  0  0
 13  9  1  0  0  0  0
 14  9  1  0  0  0  0
M  END
$$$$
