butane_opt
 OpenBabel08242015413D

 14 13  0  0  0  0  0  0  0  0999 V2000
   -3.9415    0.2509    0.0105 C   0  0  0  0  0  0  0  0  0  0  0  0
   -2.6818   -0.5926    0.0475 C   0  0  0  0  0  0  0  0  0  0  0  0
   -4.8872   -0.3883    0.0374 H   0  0  0  0  0  0  0  0  0  0  0  0
   -3.9124    0.8779   -0.9581 H   0  0  0  0  0  0  0  0  0  0  0  0
   -4.0052    0.8790    0.8771 H   0  0  0  0  0  0  0  0  0  0  0  0
   -1.4228    0.1865    0.0142 C   0  0  0  0  0  0  0  0  0  0  0  0
   -2.6587   -1.1933   -0.7257 H   0  0  0  0  0  0  0  0  0  0  0  0
   -2.7148   -1.2927    1.0143 H   0  0  0  0  0  0  0  0  0  0  0  0
   -0.1763   -0.6999    0.0159 C   0  0  0  0  0  0  0  0  0  0  0  0
   -1.3396    0.9448    0.9057 H   0  0  0  0  0  0  0  0  0  0  0  0
   -1.3671    0.7940   -0.8478 H   0  0  0  0  0  0  0  0  0  0  0  0
   -0.1606   -1.2506    0.8862 H   0  0  0  0  0  0  0  0  0  0  0  0
    0.7523   -0.0912    0.0651 H   0  0  0  0  0  0  0  0  0  0  0  0
   -0.0520   -1.4991   -0.8859 H   0  0  0  0  0  0  0  0  0  0  0  0
  1  3  1  0  0  0  0
  1  2  1  0  0  0  0
  1  5  1  0  0  0  0
  2  8  1  0  0  0  0
  4  1  1  0  0  0  0
  6  9  1  0  0  0  0
  6  2  1  0  0  0  0
  6 10  1  0  0  0  0
  7  2  1  0  0  0  0
  9 13  1  0  0  0  0
  9 12  1  0  0  0  0
 11  6  1  0  0  0  0
 14  9  1  0  0  0  0
M  END
$$$$
