butane_opt
 OpenBabel08242015413D

 14 13  0  0  0  0  0  0  0  0999 V2000
   -3.9691    0.2821   -0.0268 C   0  0  0  0  0  0  0  0  0  0  0  0
   -2.6898   -0.6445    0.0893 C   0  0  0  0  0  0  0  0  0  0  0  0
   -4.8610   -0.2785    0.0253 H   0  0  0  0  0  0  0  0  0  0  0  0
   -3.9064    1.0106   -1.0405 H   0  0  0  0  0  0  0  0  0  0  0  0
   -4.0186    0.8288    0.7446 H   0  0  0  0  0  0  0  0  0  0  0  0
   -1.3827    0.1807    0.0922 C   0  0  0  0  0  0  0  0  0  0  0  0
   -2.6419   -1.3421   -0.7883 H   0  0  0  0  0  0  0  0  0  0  0  0
   -2.8198   -1.2412    0.9199 H   0  0  0  0  0  0  0  0  0  0  0  0
   -0.1688   -0.6787   -0.0270 C   0  0  0  0  0  0  0  0  0  0  0  0
   -1.2617    0.9321    0.9853 H   0  0  0  0  0  0  0  0  0  0  0  0
   -1.4339    0.8003   -0.7861 H   0  0  0  0  0  0  0  0  0  0  0  0
   -0.1229   -1.3825    0.8895 H   0  0  0  0  0  0  0  0  0  0  0  0
    0.7471   -0.1128   -0.1791 H   0  0  0  0  0  0  0  0  0  0  0  0
   -0.1910   -1.3506   -0.8636 H   0  0  0  0  0  0  0  0  0  0  0  0
  1  3  1  0  0  0  0
  1  2  1  0  0  0  0
  1  5  1  0  0  0  0
  2  6  1  0  0  0  0
  2  8  1  0  0  0  0
  4  1  1  0  0  0  0
  6 10  1  0  0  0  0
  7  2  1  0  0  0  0
  9  6  1  0  0  0  0
  9 12  1  0  0  0  0
 11  6  1  0  0  0  0
 13  9  1  0  0  0  0
 14  9  1  0  0  0  0
M  END
$$$$
