14
butane_opt
C  -3.959583   0.282041  -0.040825
C  -2.682646  -0.650231   0.127966
H  -4.848252  -0.278136  -0.235316
H  -3.757190   0.829245  -0.870332
H  -4.134766   1.081642   0.879640
C  -1.399648   0.171003   0.049860
H  -2.590658  -1.318228  -0.710718
H  -2.733827  -1.358385   1.086876
C  -0.177829  -0.672369  -0.013601
H  -1.356637   0.876535   0.925575
H  -1.418526   0.795813  -0.869321
H  -0.059995  -1.178675   0.806166
H   0.727065  -0.079714  -0.106360
H  -0.229692  -1.404078  -0.941507
