butane_opt
 OpenBabel08242015413D

 14 13  0  0  0  0  0  0  0  0999 V2000
   -3.9538    0.2520    0.0172 C   0  0  0  0  0  0  0  0  0  0  0  0
   -2.7077   -0.6092    0.0136 C   0  0  0  0  0  0  0  0  0  0  0  0
   -4.7967   -0.3048    0.0676 H   0  0  0  0  0  0  0  0  0  0  0  0
   -4.0272    0.8442   -0.8613 H   0  0  0  0  0  0  0  0  0  0  0  0
   -3.9238    0.9302    0.9124 H   0  0  0  0  0  0  0  0  0  0  0  0
   -1.4190    0.1981    0.0274 C   0  0  0  0  0  0  0  0  0  0  0  0
   -2.6657   -1.2835   -0.8251 H   0  0  0  0  0  0  0  0  0  0  0  0
   -2.8225   -1.2640    0.9301 H   0  0  0  0  0  0  0  0  0  0  0  0
   -0.1369   -0.7088    0.0309 C   0  0  0  0  0  0  0  0  0  0  0  0
   -1.3390    0.9776    0.8911 H   0  0  0  0  0  0  0  0  0  0  0  0
   -1.4019    0.8242   -0.8713 H   0  0  0  0  0  0  0  0  0  0  0  0
   -0.0292   -1.4544    1.0011 H   0  0  0  0  0  0  0  0  0  0  0  0
    0.7932   -0.1187   -0.0918 H   0  0  0  0  0  0  0  0  0  0  0  0
   -0.2001   -1.2018   -0.7488 H   0  0  0  0  0  0  0  0  0  0  0  0
  1  3  1  0  0  0  0
  1  5  1  0  0  0  0
  2  1  1  0  0  0  0
  2  6  1  0  0  0  0
  2  8  1  0  0  0  0
  4  1  1  0  0  0  0
  6  9  1  0  0  0  0
  6 10  1  0  0  0  0
  7  2  1  0  0  0  0
  9 12  1  0  0  0  0
 11  6  1  0  0  0  0
 13  9  1  0  0  0  0
 14  9  1  0  0  0  0
M  END
$$$$
