butane_opt
 OpenBabel08242015413D

 14 13  0  0  0  0  0  0  0  0999 V2000
   -3.9747    0.2929    0.0164 C   0  0  0  0  0  0  0  0  0  0  0  0
   -2.6836   -0.6408    0.0667 C   0  0  0  0  0  0  0  0  0  0  0  0
   -4.8969   -0.3073   -0.1178 H   0  0  0  0  0  0  0  0  0  0  0  0
   -3.9003    0.7178   -0.7602 H   0  0  0  0  0  0  0  0  0  0  0  0
   -4.1070    1.1147    0.9830 H   0  0  0  0  0  0  0  0  0  0  0  0
   -1.3804    0.1657   -0.0033 C   0  0  0  0  0  0  0  0  0  0  0  0
   -2.7177   -1.4180   -0.8945 H   0  0  0  0  0  0  0  0  0  0  0  0
   -2.7341   -1.2007    0.8761 H   0  0  0  0  0  0  0  0  0  0  0  0
   -0.1686   -0.6790    0.0342 C   0  0  0  0  0  0  0  0  0  0  0  0
   -1.3404    0.8198    0.8072 H   0  0  0  0  0  0  0  0  0  0  0  0
   -1.3352    0.8723   -0.9413 H   0  0  0  0  0  0  0  0  0  0  0  0
   -0.1728   -1.4316    1.0096 H   0  0  0  0  0  0  0  0  0  0  0  0
    0.8228   -0.0569   -0.0771 H   0  0  0  0  0  0  0  0  0  0  0  0
   -0.1628   -1.2444   -0.7752 H   0  0  0  0  0  0  0  0  0  0  0  0
  1  2  1  0  0  0  0
  1  5  1  0  0  0  0
  2  8  1  0  0  0  0
  3  1  1  0  0  0  0
  4  1  1  0  0  0  0
  6  9  1  0  0  0  0
  6  2  1  0  0  0  0
  6 10  1  0  0  0  0
  7  2  1  0  0  0  0
  9 12  1  0  0  0  0
 11  6  1  0  0  0  0
 13  9  1  0  0  0  0
 14  9  1  0  0  0  0
M  END
$$$$
