butane_opt
 OpenBabel08242015413D

 14 13  0  0  0  0  0  0  0  0999 V2000
   -3.9249    0.2811    0.0194 C   0  0  0  0  0  0  0  0  0  0  0  0
   -2.7071   -0.6326    0.0559 C   0  0  0  0  0  0  0  0  0  0  0  0
   -4.8054   -0.2965   -0.1278 H   0  0  0  0  0  0  0  0  0  0  0  0
   -3.9138    0.7637   -0.7984 H   0  0  0  0  0  0  0  0  0  0  0  0
   -4.1011    1.1703    0.9739 H   0  0  0  0  0  0  0  0  0  0  0  0
   -1.4020    0.1557   -0.0071 C   0  0  0  0  0  0  0  0  0  0  0  0
   -2.6680   -1.3440   -0.7933 H   0  0  0  0  0  0  0  0  0  0  0  0
   -2.7129   -1.2857    0.9293 H   0  0  0  0  0  0  0  0  0  0  0  0
   -0.1815   -0.6723    0.0448 C   0  0  0  0  0  0  0  0  0  0  0  0
   -1.4055    0.7920    0.8294 H   0  0  0  0  0  0  0  0  0  0  0  0
   -1.3212    0.8743   -0.9564 H   0  0  0  0  0  0  0  0  0  0  0  0
   -0.1002   -1.3218    0.9336 H   0  0  0  0  0  0  0  0  0  0  0  0
    0.8039   -0.0336   -0.0477 H   0  0  0  0  0  0  0  0  0  0  0  0
   -0.2268   -1.3603   -0.8363 H   0  0  0  0  0  0  0  0  0  0  0  0
  1  2  1  0  0  0  0
  1  5  1  0  0  0  0
  2  8  1  0  0  0  0
  3  1  1  0  0  0  0
  4  1  1  0  0  0  0
  6  9  1  0  0  0  0
  6  2  1  0  0  0  0
  6 10  1  0  0  0  0
  7  2  1  0  0  0  0
  9 12  1  0  0  0  0
 11  6  1  0  0  0  0
 13  9  1  0  0  0  0
 14  9  1  0  0  0  0
M  END
$$$$
