butane_opt
 OpenBabel08242015413D

 14 13  0  0  0  0  0  0  0  0999 V2000
   -3.9727    0.2807    0.0578 C   0  0  0  0  0  0  0  0  0  0  0  0
   -2.6934   -0.6337   -0.0326 C   0  0  0  0  0  0  0  0  0  0  0  0
   -4.8933   -0.2938    0.2578 H   0  0  0  0  0  0  0  0  0  0  0  0
   -4.1924    1.0600   -0.8881 H   0  0  0  0  0  0  0  0  0  0  0  0
   -3.8279    0.8705    0.8767 H   0  0  0  0  0  0  0  0  0  0  0  0
   -1.3808    0.1623   -0.0170 C   0  0  0  0  0  0  0  0  0  0  0  0
   -2.7909   -1.3288   -0.8948 H   0  0  0  0  0  0  0  0  0  0  0  0
   -2.6904   -1.2346    0.8061 H   0  0  0  0  0  0  0  0  0  0  0  0
   -0.1640   -0.6832    0.0810 C   0  0  0  0  0  0  0  0  0  0  0  0
   -1.3521    0.8613    0.8263 H   0  0  0  0  0  0  0  0  0  0  0  0
   -1.2943    0.7589   -0.8988 H   0  0  0  0  0  0  0  0  0  0  0  0
   -0.1123   -1.3253    0.9866 H   0  0  0  0  0  0  0  0  0  0  0  0
    0.7792   -0.0289    0.0214 H   0  0  0  0  0  0  0  0  0  0  0  0
   -0.1273   -1.3123   -0.7371 H   0  0  0  0  0  0  0  0  0  0  0  0
  1  3  1  0  0  0  0
  1  5  1  0  0  0  0
  2  6  1  0  0  0  0
  2  1  1  0  0  0  0
  2  8  1  0  0  0  0
  4  1  1  0  0  0  0
  6  9  1  0  0  0  0
  6 10  1  0  0  0  0
  7  2  1  0  0  0  0
  9 12  1  0  0  0  0
 11  6  1  0  0  0  0
 13  9  1  0  0  0  0
 14  9  1  0  0  0  0
M  END
$$$$
