14
butane_opt
C  -3.905873   0.243995  -0.051142
C  -2.707514  -0.597315   0.103688
H  -4.883077  -0.403492  -0.079164
H  -3.864967   0.912794  -1.007758
H  -3.942709   0.911283   0.838486
C  -1.437501   0.215898   0.086452
H  -2.697158  -1.195996  -0.700382
H  -2.794517  -1.275423   0.997581
C  -0.146988  -0.719069  -0.030884
H  -1.431804   0.973254   1.017165
H  -1.404515   0.705875  -0.709024
H  -0.015663  -1.368367   0.902474
H   0.714101  -0.144177  -0.260581
H  -0.310815  -1.315756  -0.865976
