butane_opt
 OpenBabel08242015413D

 14 13  0  0  0  0  0  0  0  0999 V2000
   -3.9385    0.2674    0.0262 C   0  0  0  0  0  0  0  0  0  0  0  0
   -2.6911   -0.6232    0.0301 C   0  0  0  0  0  0  0  0  0  0  0  0
   -4.7988   -0.2488   -0.0745 H   0  0  0  0  0  0  0  0  0  0  0  0
   -3.9071    0.7272   -0.7621 H   0  0  0  0  0  0  0  0  0  0  0  0
   -3.9903    1.1093    0.9923 H   0  0  0  0  0  0  0  0  0  0  0  0
   -1.4127    0.1668    0.0015 C   0  0  0  0  0  0  0  0  0  0  0  0
   -2.6353   -1.3485   -0.8449 H   0  0  0  0  0  0  0  0  0  0  0  0
   -2.6587   -1.2919    0.9486 H   0  0  0  0  0  0  0  0  0  0  0  0
   -0.1811   -0.6703    0.0415 C   0  0  0  0  0  0  0  0  0  0  0  0
   -1.3904    0.7378    0.7657 H   0  0  0  0  0  0  0  0  0  0  0  0
   -1.3911    0.8986   -0.9336 H   0  0  0  0  0  0  0  0  0  0  0  0
   -0.1377   -1.3739    0.9611 H   0  0  0  0  0  0  0  0  0  0  0  0
    0.7038   -0.0782    0.0077 H   0  0  0  0  0  0  0  0  0  0  0  0
   -0.1484   -1.2855   -0.7811 H   0  0  0  0  0  0  0  0  0  0  0  0
  1  2  1  0  0  0  0
  1  5  1  0  0  0  0
  2  8  1  0  0  0  0
  3  1  1  0  0  0  0
  4  1  1  0  0  0  0
  6  2  1  0  0  0  0
  6  9  1  0  0  0  0
  6 10  1  0  0  0  0
  7  2  1  0  0  0  0
  9 12  1  0  0  0  0
 11  6  1  0  0  0  0
 13  9  1  0  0  0  0
 14  9  1  0  0  0  0
M  END
$$$$
