14
butane_opt
C  -3.924876   0.281131   0.019400
C  -2.707147  -0.632646   0.055936
H  -4.805393  -0.296522  -0.127801
H  -3.913767   0.763709  -0.798436
H  -4.101106   1.170256   0.973876
C  -1.401957   0.155653  -0.007117
H  -2.667965  -1.343999  -0.793298
H  -2.712924  -1.285716   0.929339
C  -0.181508  -0.672344   0.044823
H  -1.405466   0.791978   0.829434
H  -1.321175   0.874275  -0.956382
H  -0.100207  -1.321824   0.933623
H   0.803949  -0.033616  -0.047679
H  -0.226750  -1.360253  -0.836253
