butane_opt
 OpenBabel08242015413D

 14 13  0  0  0  0  0  0  0  0999 V2000
   -3.9231    0.2824   -0.0401 C   0  0  0  0  0  0  0  0  0  0  0  0
   -2.6749   -0.6387    0.1176 C   0  0  0  0  0  0  0  0  0  0  0  0
   -4.8284   -0.3137   -0.2323 H   0  0  0  0  0  0  0  0  0  0  0  0
   -3.9119    0.8323   -0.8730 H   0  0  0  0  0  0  0  0  0  0  0  0
   -4.1328    1.0961    0.9154 H   0  0  0  0  0  0  0  0  0  0  0  0
   -1.4194    0.1499    0.0533 C   0  0  0  0  0  0  0  0  0  0  0  0
   -2.6690   -1.2837   -0.6659 H   0  0  0  0  0  0  0  0  0  0  0  0
   -2.7619   -1.2827    1.0133 H   0  0  0  0  0  0  0  0  0  0  0  0
   -0.1781   -0.6624   -0.0150 C   0  0  0  0  0  0  0  0  0  0  0  0
   -1.4034    0.7747    0.8859 H   0  0  0  0  0  0  0  0  0  0  0  0
   -1.4067    0.7943   -0.8297 H   0  0  0  0  0  0  0  0  0  0  0  0
   -0.0580   -1.2532    0.8100 H   0  0  0  0  0  0  0  0  0  0  0  0
    0.7843   -0.0323   -0.0697 H   0  0  0  0  0  0  0  0  0  0  0  0
   -0.2989   -1.3656   -0.8985 H   0  0  0  0  0  0  0  0  0  0  0  0
  1  2  1  0  0  0  0
  1  5  1  0  0  0  0
  2  8  1  0  0  0  0
  3  1  1  0  0  0  0
  4  1  1  0  0  0  0
  6  2  1  0  0  0  0
  6 10  1  0  0  0  0
  7  2  1  0  0  0  0
  9  6  1  0  0  0  0
  9 12  1  0  0  0  0
 11  6  1  0  0  0  0
 13  9  1  0  0  0  0
 14  9  1  0  0  0  0
M  END
$$$$
