butane_opt
 OpenBabel08242015413D

 14 13  0  0  0  0  0  0  0  0999 V2000
   -3.9459    0.2766   -0.0311 C   0  0  0  0  0  0  0  0  0  0  0  0
   -2.6980   -0.6231    0.1070 C   0  0  0  0  0  0  0  0  0  0  0  0
   -4.9105   -0.3187    0.0763 H   0  0  0  0  0  0  0  0  0  0  0  0
   -3.9156    0.9325   -0.9319 H   0  0  0  0  0  0  0  0  0  0  0  0
   -3.9783    0.8827    0.8087 H   0  0  0  0  0  0  0  0  0  0  0  0
   -1.3844    0.1640    0.0320 C   0  0  0  0  0  0  0  0  0  0  0  0
   -2.6298   -1.2331   -0.7032 H   0  0  0  0  0  0  0  0  0  0  0  0
   -2.7272   -1.2547    0.9738 H   0  0  0  0  0  0  0  0  0  0  0  0
   -0.1714   -0.6888   -0.0044 C   0  0  0  0  0  0  0  0  0  0  0  0
   -1.4004    0.8635    0.8855 H   0  0  0  0  0  0  0  0  0  0  0  0
   -1.3929    0.8432   -0.8706 H   0  0  0  0  0  0  0  0  0  0  0  0
   -0.2565   -1.1022    0.7637 H   0  0  0  0  0  0  0  0  0  0  0  0
    0.7669   -0.0728    0.1963 H   0  0  0  0  0  0  0  0  0  0  0  0
   -0.1788   -1.5733   -1.0227 H   0  0  0  0  0  0  0  0  0  0  0  0
  1  3  1  0  0  0  0
  1  2  1  0  0  0  0
  1  5  1  0  0  0  0
  2  8  1  0  0  0  0
  4  1  1  0  0  0  0
  6  2  1  0  0  0  0
  6 10  1  0  0  0  0
  7  2  1  0  0  0  0
  9  6  1  0  0  0  0
  9 13  1  0  0  0  0
  9 12  1  0  0  0  0
 11  6  1  0  0  0  0
 14  9  1  0  0  0  0
M  END
$$$$
