butane_opt
 OpenBabel08242015413D

 14 13  0  0  0  0  0  0  0  0999 V2000
   -3.9359    0.2549   -0.0297 C   0  0  0  0  0  0  0  0  0  0  0  0
   -2.7233   -0.5880    0.1066 C   0  0  0  0  0  0  0  0  0  0  0  0
   -4.8903   -0.3732   -0.1708 H   0  0  0  0  0  0  0  0  0  0  0  0
   -3.8400    0.7686   -0.8958 H   0  0  0  0  0  0  0  0  0  0  0  0
   -4.1436    1.0386    0.9056 H   0  0  0  0  0  0  0  0  0  0  0  0
   -1.4117    0.1935    0.0437 C   0  0  0  0  0  0  0  0  0  0  0  0
   -2.7099   -1.2574   -0.6976 H   0  0  0  0  0  0  0  0  0  0  0  0
   -2.8634   -1.2993    1.0790 H   0  0  0  0  0  0  0  0  0  0  0  0
   -0.1305   -0.7060   -0.0061 C   0  0  0  0  0  0  0  0  0  0  0  0
   -1.3756    0.8214    0.8685 H   0  0  0  0  0  0  0  0  0  0  0  0
   -1.3892    0.8263   -0.8602 H   0  0  0  0  0  0  0  0  0  0  0  0
   -0.0063   -1.2330    0.8254 H   0  0  0  0  0  0  0  0  0  0  0  0
    0.8121   -0.1247   -0.0437 H   0  0  0  0  0  0  0  0  0  0  0  0
   -0.1942   -1.4896   -0.9364 H   0  0  0  0  0  0  0  0  0  0  0  0
  1  2  1  0  0  0  0
  1  5  1  0  0  0  0
  2  8  1  0  0  0  0
  3  1  1  0  0  0  0
  4  1  1  0  0  0  0
  6  2  1  0  0  0  0
  6 10  1  0  0  0  0
  7  2  1  0  0  0  0
  9  6  1  0  0  0  0
  9 12  1  0  0  0  0
 11  6  1  0  0  0  0
 13  9  1  0  0  0  0
 14  9  1  0  0  0  0
M  END
$$$$
