14
butane_opt
C  -3.935892   0.254878  -0.029694
C  -2.723280  -0.588013   0.106566
H  -4.890334  -0.373214  -0.170756
H  -3.839984   0.768624  -0.895782
H  -4.143643   1.038621   0.905603
C  -1.411692   0.193459   0.043732
H  -2.709948  -1.257362  -0.697645
H  -2.863432  -1.299332   1.078994
C  -0.130500  -0.705984  -0.006140
H  -1.375613   0.821361   0.868481
H  -1.389168   0.826294  -0.860217
H  -0.006313  -1.232997   0.825433
H   0.812050  -0.124747  -0.043712
H  -0.194184  -1.489648  -0.936413
