14
butane_opt
C  -3.966753   0.274146   0.077157
C  -2.680916  -0.642489  -0.031531
H  -4.826450  -0.283465   0.217526
H  -4.132781   0.972457  -0.832594
H  -3.909594   0.877651   0.887285
C  -1.391140   0.178424  -0.044751
H  -2.737532  -1.372723  -0.913840
H  -2.707636  -1.208282   0.834955
C  -0.155750  -0.679986   0.076762
H  -1.351138   0.909718   0.842030
H  -1.362404   0.821185  -0.983886
H  -0.266860  -1.352943   1.047016
H   0.684122  -0.119069   0.184876
H  -0.075157  -1.284849  -0.768197
