14
butane_opt
C  -3.945903   0.276596  -0.031077
C  -2.698031  -0.623123   0.107003
H  -4.910536  -0.318737   0.076340
H  -3.915571   0.932494  -0.931872
H  -3.978298   0.882671   0.808745
C  -1.384402   0.163959   0.032032
H  -2.629816  -1.233091  -0.703246
H  -2.727180  -1.254688   0.973793
C  -0.171400  -0.688786  -0.004364
H  -1.400388   0.863522   0.885531
H  -1.392911   0.843245  -0.870610
H  -0.256499  -1.102212   0.763697
H   0.766912  -0.072808   0.196251
H  -0.178781  -1.573278  -1.022702
