14
butane_opt
C  -3.944538   0.272375   0.047056
C  -2.687113  -0.610276  -0.031137
H  -4.868200  -0.330016   0.299233
H  -4.053563   0.897339  -0.838916
H  -3.841267   0.837993   0.843403
C  -1.402893   0.175801   0.007081
H  -2.714713  -1.325062  -0.904930
H  -2.654287  -1.155852   0.835474
C  -0.186792  -0.695674   0.064495
H  -1.388878   0.750664   0.792068
H  -1.331059   0.860477  -0.922466
H  -0.132995  -1.345959   1.027512
H   0.771225  -0.047326   0.015037
H  -0.160730  -1.316375  -0.752952
