butane_opt
 OpenBabel08242015413D

 14 13  0  0  0  0  0  0  0  0999 V2000
   -3.9637    0.2789    0.0264 C   0  0  0  0  0  0  0  0  0  0  0  0
   -2.6989   -0.6217    0.0054 C   0  0  0  0  0  0  0  0  0  0  0  0
   -4.8724   -0.2897    0.0864 H   0  0  0  0  0  0  0  0  0  0  0  0
   -4.0601    0.8287   -0.8012 H   0  0  0  0  0  0  0  0  0  0  0  0
   -4.0313    0.9645    0.8907 H   0  0  0  0  0  0  0  0  0  0  0  0
   -1.3887    0.1607    0.0187 C   0  0  0  0  0  0  0  0  0  0  0  0
   -2.6406   -1.2940   -0.8757 H   0  0  0  0  0  0  0  0  0  0  0  0
   -2.6389   -1.3123    0.9242 H   0  0  0  0  0  0  0  0  0  0  0  0
   -0.1637   -0.6762    0.0458 C   0  0  0  0  0  0  0  0  0  0  0  0
   -1.4094    0.8550    0.8745 H   0  0  0  0  0  0  0  0  0  0  0  0
   -1.2691    0.7846   -0.9067 H   0  0  0  0  0  0  0  0  0  0  0  0
   -0.0932   -1.4082    1.0179 H   0  0  0  0  0  0  0  0  0  0  0  0
    0.7767   -0.0727   -0.1162 H   0  0  0  0  0  0  0  0  0  0  0  0
   -0.2037   -1.2264   -0.7944 H   0  0  0  0  0  0  0  0  0  0  0  0
  1  3  1  0  0  0  0
  1  5  1  0  0  0  0
  2  6  1  0  0  0  0
  2  1  1  0  0  0  0
  2  8  1  0  0  0  0
  4  1  1  0  0  0  0
  6  9  1  0  0  0  0
  6 10  1  0  0  0  0
  7  2  1  0  0  0  0
  9 12  1  0  0  0  0
 11  6  1  0  0  0  0
 13  9  1  0  0  0  0
 14  9  1  0  0  0  0
M  END
$$$$
