butane_opt
 OpenBabel08242015413D

 14 13  0  0  0  0  0  0  0  0999 V2000
   -3.9691    0.2840    0.0722 C   0  0  0  0  0  0  0  0  0  0  0  0
   -2.6979   -0.6543   -0.0290 C   0  0  0  0  0  0  0  0  0  0  0  0
   -4.8646   -0.2677    0.1737 H   0  0  0  0  0  0  0  0  0  0  0  0
   -4.0812    0.9346   -0.8441 H   0  0  0  0  0  0  0  0  0  0  0  0
   -3.8711    1.0126    0.9873 H   0  0  0  0  0  0  0  0  0  0  0  0
   -1.3741    0.1731   -0.0497 C   0  0  0  0  0  0  0  0  0  0  0  0
   -2.7451   -1.3682   -0.8743 H   0  0  0  0  0  0  0  0  0  0  0  0
   -2.6982   -1.2828    0.8857 H   0  0  0  0  0  0  0  0  0  0  0  0
   -0.1691   -0.6725    0.0881 C   0  0  0  0  0  0  0  0  0  0  0  0
   -1.4608    0.8346    0.7595 H   0  0  0  0  0  0  0  0  0  0  0  0
   -1.2534    0.8887   -0.9745 H   0  0  0  0  0  0  0  0  0  0  0  0
   -0.2177   -1.2773    0.9736 H   0  0  0  0  0  0  0  0  0  0  0  0
    0.7016   -0.0855    0.1331 H   0  0  0  0  0  0  0  0  0  0  0  0
   -0.0216   -1.4216   -0.7752 H   0  0  0  0  0  0  0  0  0  0  0  0
  1  3  1  0  0  0  0
  1  5  1  0  0  0  0
  2  1  1  0  0  0  0
  2  8  1  0  0  0  0
  4  1  1  0  0  0  0
  6  2  1  0  0  0  0
  6  9  1  0  0  0  0
  6 10  1  0  0  0  0
  7  2  1  0  0  0  0
  9 13  1  0  0  0  0
  9 12  1  0  0  0  0
 11  6  1  0  0  0  0
 14  9  1  0  0  0  0
M  END
$$$$
