14
butane_opt
C  -3.952454   0.241027   0.062181
C  -2.703817  -0.600176   0.002594
H  -4.855159  -0.352509   0.109942
H  -4.004083   0.795615  -0.765347
H  -3.978575   1.030202   0.992706
C  -1.416863   0.216289  -0.079066
H  -2.763643  -1.281039  -0.860758
H  -2.682294  -1.249436   0.932429
C  -0.138618  -0.700163   0.084457
H  -1.342134   0.825554   0.720281
H  -1.388147   0.797046  -0.951229
H  -0.234718  -1.246116   0.958319
H   0.727490  -0.172626   0.261380
H   0.055497  -1.510530  -0.792454
