butane_opt
 OpenBabel08242015423D

 14 13  0  0  0  0  0  0  0  0999 V2000
   -3.9587    0.2640    0.0773 C   0  0  0  0  0  0  0  0  0  0  0  0
   -2.7068   -0.6160   -0.0061 C   0  0  0  0  0  0  0  0  0  0  0  0
   -4.8999   -0.4035    0.0449 H   0  0  0  0  0  0  0  0  0  0  0  0
   -4.0379    0.8023   -0.7737 H   0  0  0  0  0  0  0  0  0  0  0  0
   -3.8767    0.9593    0.9626 H   0  0  0  0  0  0  0  0  0  0  0  0
   -1.4054    0.1938   -0.0792 C   0  0  0  0  0  0  0  0  0  0  0  0
   -2.7814   -1.3069   -0.8732 H   0  0  0  0  0  0  0  0  0  0  0  0
   -2.6104   -1.2047    0.8801 H   0  0  0  0  0  0  0  0  0  0  0  0
   -0.1367   -0.6964    0.0937 C   0  0  0  0  0  0  0  0  0  0  0  0
   -1.3888    0.8774    0.7761 H   0  0  0  0  0  0  0  0  0  0  0  0
   -1.4032    0.9200   -1.0280 H   0  0  0  0  0  0  0  0  0  0  0  0
   -0.2559   -1.2543    0.9603 H   0  0  0  0  0  0  0  0  0  0  0  0
    0.7147   -0.1619    0.2433 H   0  0  0  0  0  0  0  0  0  0  0  0
    0.0177   -1.4649   -0.7910 H   0  0  0  0  0  0  0  0  0  0  0  0
  1  5  1  0  0  0  0
  2  1  1  0  0  0  0
  2  8  1  0  0  0  0
  3  1  1  0  0  0  0
  4  1  1  0  0  0  0
  6  2  1  0  0  0  0
  6  9  1  0  0  0  0
  6 10  1  0  0  0  0
  7  2  1  0  0  0  0
  9 13  1  0  0  0  0
  9 12  1  0  0  0  0
 11  6  1  0  0  0  0
 14  9  1  0  0  0  0
M  END
$$$$
