butane_opt
 OpenBabel08242015423D

 14 13  0  0  0  0  0  0  0  0999 V2000
   -3.9525    0.2410    0.0622 C   0  0  0  0  0  0  0  0  0  0  0  0
   -2.7038   -0.6002    0.0026 C   0  0  0  0  0  0  0  0  0  0  0  0
   -4.8552   -0.3525    0.1099 H   0  0  0  0  0  0  0  0  0  0  0  0
   -4.0041    0.7956   -0.7653 H   0  0  0  0  0  0  0  0  0  0  0  0
   -3.9786    1.0302    0.9927 H   0  0  0  0  0  0  0  0  0  0  0  0
   -1.4169    0.2163   -0.0791 C   0  0  0  0  0  0  0  0  0  0  0  0
   -2.7636   -1.2810   -0.8608 H   0  0  0  0  0  0  0  0  0  0  0  0
   -2.6823   -1.2494    0.9324 H   0  0  0  0  0  0  0  0  0  0  0  0
   -0.1386   -0.7002    0.0845 C   0  0  0  0  0  0  0  0  0  0  0  0
   -1.3421    0.8256    0.7203 H   0  0  0  0  0  0  0  0  0  0  0  0
   -1.3881    0.7970   -0.9512 H   0  0  0  0  0  0  0  0  0  0  0  0
   -0.2347   -1.2461    0.9583 H   0  0  0  0  0  0  0  0  0  0  0  0
    0.7275   -0.1726    0.2614 H   0  0  0  0  0  0  0  0  0  0  0  0
    0.0555   -1.5105   -0.7925 H   0  0  0  0  0  0  0  0  0  0  0  0
  1  3  1  0  0  0  0
  1  5  1  0  0  0  0
  2  1  1  0  0  0  0
  2  8  1  0  0  0  0
  4  1  1  0  0  0  0
  6  2  1  0  0  0  0
  6  9  1  0  0  0  0
  6 10  1  0  0  0  0
  7  2  1  0  0  0  0
  9 13  1  0  0  0  0
  9 12  1  0  0  0  0
 11  6  1  0  0  0  0
 14  9  1  0  0  0  0
M  END
$$$$
