14
butane_opt
C  -3.942616   0.280027   0.048617
C  -2.684227  -0.633280  -0.004247
H  -4.861239  -0.306477   0.160178
H  -4.038652   0.924962  -0.882270
H  -3.897658   0.919105   0.904841
C  -1.391227   0.179375  -0.024818
H  -2.742535  -1.306910  -0.862970
H  -2.661534  -1.282495   0.869353
C  -0.189793  -0.686428   0.070455
H  -1.394963   0.848835   0.824686
H  -1.363255   0.765182  -0.878882
H  -0.177550  -1.283459   0.970724
H   0.736344  -0.053963   0.043367
H  -0.134799  -1.362967  -0.795866
