14
butane_opt
C  -3.939171   0.286040   0.000073
C  -2.707119  -0.624496   0.045725
H  -4.925065  -0.375247   0.180463
H  -4.046994   0.947448  -0.938988
H  -3.873689   0.881795   0.855275
C  -1.396875   0.174767   0.013621
H  -2.637283  -1.225454  -0.761835
H  -2.677070  -1.337696   1.018616
C  -0.171687  -0.685700   0.014975
H  -1.401915   0.822428   0.841052
H  -1.348046   0.717912  -0.842595
H  -0.196314  -1.170932   0.847590
H   0.754347  -0.040350   0.247444
H  -0.093554  -1.497794  -0.918189
