14
butane_opt
C  -3.957118   0.276263  -0.001680
C  -2.692071  -0.631951   0.078089
H  -4.854026  -0.306574   0.044777
H  -3.965427   0.971314  -0.953252
H  -4.055154   0.882590   0.799429
C  -1.393043   0.177562   0.016496
H  -2.697804  -1.277351  -0.745394
H  -2.736670  -1.290866   0.997686
C  -0.156627  -0.681981   0.008547
H  -1.388673   0.870340   0.883739
H  -1.426380   0.734973  -0.848648
H  -0.219550  -1.149231   0.813183
H   0.803398  -0.049851   0.141260
H  -0.102966  -1.526190  -0.933266
