14
butane_opt
C  -3.915259   0.242451   0.070160
C  -2.688565  -0.586670  -0.023622
H  -4.911391  -0.384707   0.148195
H  -4.055543   0.893212  -0.846501
H  -3.796665   0.895003   0.941344
C  -1.418790   0.209747  -0.047128
H  -2.856810  -1.316066  -0.964095
H  -2.679378  -1.211938   0.890857
C  -0.178214  -0.714893   0.072983
H  -1.415450   0.893966   0.833329
H  -1.411113   0.818613  -0.907949
H  -0.208453  -1.419323   1.049847
H   0.732881  -0.121520   0.125944
H  -0.000454  -1.332180  -0.705507
