butane_opt
 OpenBabel08242015423D

 14 13  0  0  0  0  0  0  0  0999 V2000
   -3.9425    0.2558    0.0107 C   0  0  0  0  0  0  0  0  0  0  0  0
   -2.7104   -0.6104    0.0299 C   0  0  0  0  0  0  0  0  0  0  0  0
   -4.8777   -0.3552    0.1471 H   0  0  0  0  0  0  0  0  0  0  0  0
   -4.0060    0.9193   -0.9059 H   0  0  0  0  0  0  0  0  0  0  0  0
   -3.9229    0.8643    0.8426 H   0  0  0  0  0  0  0  0  0  0  0  0
   -1.3935    0.2080    0.0215 C   0  0  0  0  0  0  0  0  0  0  0  0
   -2.7247   -1.2608   -0.8130 H   0  0  0  0  0  0  0  0  0  0  0  0
   -2.7377   -1.2581    0.9279 H   0  0  0  0  0  0  0  0  0  0  0  0
   -0.1550   -0.7102    0.0314 C   0  0  0  0  0  0  0  0  0  0  0  0
   -1.3889    0.8830    0.8613 H   0  0  0  0  0  0  0  0  0  0  0  0
   -1.4156    0.8415   -0.8393 H   0  0  0  0  0  0  0  0  0  0  0  0
   -0.1038   -1.2662    0.9186 H   0  0  0  0  0  0  0  0  0  0  0  0
    0.7010   -0.1722    0.0183 H   0  0  0  0  0  0  0  0  0  0  0  0
   -0.1173   -1.3972   -0.8475 H   0  0  0  0  0  0  0  0  0  0  0  0
  1  2  1  0  0  0  0
  1  3  1  0  0  0  0
  1  5  1  0  0  0  0
  2  8  1  0  0  0  0
  4  1  1  0  0  0  0
  6  2  1  0  0  0  0
  6  9  1  0  0  0  0
  6 10  1  0  0  0  0
  7  2  1  0  0  0  0
  9 12  1  0  0  0  0
 11  6  1  0  0  0  0
 13  9  1  0  0  0  0
 14  9  1  0  0  0  0
M  END
$$$$
