butane_opt
 OpenBabel08242015423D

 14 13  0  0  0  0  0  0  0  0999 V2000
   -3.9392    0.2860    0.0001 C   0  0  0  0  0  0  0  0  0  0  0  0
   -2.7071   -0.6245    0.0457 C   0  0  0  0  0  0  0  0  0  0  0  0
   -4.9251   -0.3752    0.1805 H   0  0  0  0  0  0  0  0  0  0  0  0
   -4.0470    0.9474   -0.9390 H   0  0  0  0  0  0  0  0  0  0  0  0
   -3.8737    0.8818    0.8553 H   0  0  0  0  0  0  0  0  0  0  0  0
   -1.3969    0.1748    0.0136 C   0  0  0  0  0  0  0  0  0  0  0  0
   -2.6373   -1.2255   -0.7618 H   0  0  0  0  0  0  0  0  0  0  0  0
   -2.6771   -1.3377    1.0186 H   0  0  0  0  0  0  0  0  0  0  0  0
   -0.1717   -0.6857    0.0150 C   0  0  0  0  0  0  0  0  0  0  0  0
   -1.4019    0.8224    0.8411 H   0  0  0  0  0  0  0  0  0  0  0  0
   -1.3480    0.7179   -0.8426 H   0  0  0  0  0  0  0  0  0  0  0  0
   -0.1963   -1.1709    0.8476 H   0  0  0  0  0  0  0  0  0  0  0  0
    0.7543   -0.0403    0.2474 H   0  0  0  0  0  0  0  0  0  0  0  0
   -0.0936   -1.4978   -0.9182 H   0  0  0  0  0  0  0  0  0  0  0  0
  1  2  1  0  0  0  0
  1  3  1  0  0  0  0
  1  5  1  0  0  0  0
  2  8  1  0  0  0  0
  4  1  1  0  0  0  0
  6  9  1  0  0  0  0
  6  2  1  0  0  0  0
  6 10  1  0  0  0  0
  7  2  1  0  0  0  0
  9 13  1  0  0  0  0
  9 12  1  0  0  0  0
 11  6  1  0  0  0  0
 14  9  1  0  0  0  0
M  END
$$$$
