butane_opt
 OpenBabel08242015423D

 14 13  0  0  0  0  0  0  0  0999 V2000
   -3.9543    0.2789   -0.0283 C   0  0  0  0  0  0  0  0  0  0  0  0
   -2.6902   -0.6331    0.1122 C   0  0  0  0  0  0  0  0  0  0  0  0
   -4.8258   -0.2419    0.0102 H   0  0  0  0  0  0  0  0  0  0  0  0
   -4.0258    0.9691   -0.9529 H   0  0  0  0  0  0  0  0  0  0  0  0
   -3.9660    0.8703    0.7772 H   0  0  0  0  0  0  0  0  0  0  0  0
   -1.3934    0.1546    0.0345 C   0  0  0  0  0  0  0  0  0  0  0  0
   -2.6233   -1.2960   -0.7038 H   0  0  0  0  0  0  0  0  0  0  0  0
   -2.7285   -1.2755    1.0414 H   0  0  0  0  0  0  0  0  0  0  0  0
   -0.1717   -0.6841   -0.0084 C   0  0  0  0  0  0  0  0  0  0  0  0
   -1.4090    0.8423    0.9271 H   0  0  0  0  0  0  0  0  0  0  0  0
   -1.3840    0.8434   -0.9282 H   0  0  0  0  0  0  0  0  0  0  0  0
   -0.2666   -1.0200    0.7027 H   0  0  0  0  0  0  0  0  0  0  0  0
    0.8455   -0.0086    0.2352 H   0  0  0  0  0  0  0  0  0  0  0  0
   -0.1374   -1.5429   -1.0298 H   0  0  0  0  0  0  0  0  0  0  0  0
  1  3  1  0  0  0  0
  1  2  1  0  0  0  0
  1  5  1  0  0  0  0
  2  8  1  0  0  0  0
  4  1  1  0  0  0  0
  6  2  1  0  0  0  0
  6 10  1  0  0  0  0
  7  2  1  0  0  0  0
  9  6  1  0  0  0  0
  9 13  1  0  0  0  0
  9 12  1  0  0  0  0
 11  6  1  0  0  0  0
 14  9  1  0  0  0  0
M  END
$$$$
