14
butane_opt
C  -3.932467   0.267266   0.062420
C  -2.689245  -0.606341  -0.022658
H  -4.860042  -0.339629   0.092428
H  -3.975488   0.916108  -0.836798
H  -4.005902   0.952042   0.942133
C  -1.422247   0.168190  -0.009635
H  -2.748969  -1.418435  -0.932205
H  -2.655723  -1.207690   0.823737
C  -0.160994  -0.684171   0.065484
H  -1.449011   0.836956   0.833349
H  -1.310244   0.749523  -0.899142
H  -0.120236  -1.488998   1.085021
H   0.770619  -0.034509  -0.144880
H  -0.209655  -1.157531  -0.655021
