14
butane_opt
C  -3.946318   0.247771   0.059408
C  -2.709175  -0.605429   0.013544
H  -4.877848  -0.326751  -0.263009
H  -3.923702   0.688259  -0.712371
H  -4.050892   1.139181   1.102468
C  -1.394254   0.213963  -0.035183
H  -2.757187  -1.325956  -0.891629
H  -2.690264  -1.250184   0.942597
C  -0.162578  -0.705103   0.071579
H  -1.429249   0.755623   0.744716
H  -1.276507   0.946962  -0.989375
H  -0.042803  -1.449607   1.023626
H   0.713031  -0.155537  -0.061799
H  -0.125426  -1.317805  -0.750151
