butane_opt
 OpenBabel08242015423D

 14 13  0  0  0  0  0  0  0  0999 V2000
   -3.9285    0.2525   -0.0295 C   0  0  0  0  0  0  0  0  0  0  0  0
   -2.6858   -0.6136    0.0685 C   0  0  0  0  0  0  0  0  0  0  0  0
   -4.7788   -0.2957    0.0451 H   0  0  0  0  0  0  0  0  0  0  0  0
   -3.9737    0.9676   -0.9904 H   0  0  0  0  0  0  0  0  0  0  0  0
   -4.0186    0.9556    0.7952 H   0  0  0  0  0  0  0  0  0  0  0  0
   -1.4129    0.1790    0.0828 C   0  0  0  0  0  0  0  0  0  0  0  0
   -2.5981   -1.3248   -0.7660 H   0  0  0  0  0  0  0  0  0  0  0  0
   -2.8093   -1.2733    0.9860 H   0  0  0  0  0  0  0  0  0  0  0  0
   -0.1710   -0.6785   -0.0129 C   0  0  0  0  0  0  0  0  0  0  0  0
   -1.3746    0.9202    0.9724 H   0  0  0  0  0  0  0  0  0  0  0  0
   -1.4524    0.7372   -0.7520 H   0  0  0  0  0  0  0  0  0  0  0  0
   -0.0587   -1.4186    0.9501 H   0  0  0  0  0  0  0  0  0  0  0  0
    0.7579   -0.1070   -0.2519 H   0  0  0  0  0  0  0  0  0  0  0  0
   -0.3328   -1.2909   -0.8418 H   0  0  0  0  0  0  0  0  0  0  0  0
  1  3  1  0  0  0  0
  1  2  1  0  0  0  0
  1  5  1  0  0  0  0
  2  6  1  0  0  0  0
  2  8  1  0  0  0  0
  4  1  1  0  0  0  0
  6 10  1  0  0  0  0
  7  2  1  0  0  0  0
  9  6  1  0  0  0  0
  9 12  1  0  0  0  0
 11  6  1  0  0  0  0
 13  9  1  0  0  0  0
 14  9  1  0  0  0  0
M  END
$$$$
