butane_opt
 OpenBabel08242015423D

 14 13  0  0  0  0  0  0  0  0999 V2000
   -3.9253    0.2556    0.0239 C   0  0  0  0  0  0  0  0  0  0  0  0
   -2.7042   -0.5983    0.0345 C   0  0  0  0  0  0  0  0  0  0  0  0
   -4.8525   -0.3759   -0.0574 H   0  0  0  0  0  0  0  0  0  0  0  0
   -3.8655    0.7682   -0.8272 H   0  0  0  0  0  0  0  0  0  0  0  0
   -3.9903    1.0163    0.9458 H   0  0  0  0  0  0  0  0  0  0  0  0
   -1.4117    0.1898    0.0073 C   0  0  0  0  0  0  0  0  0  0  0  0
   -2.7636   -1.2990   -0.8031 H   0  0  0  0  0  0  0  0  0  0  0  0
   -2.7033   -1.2211    0.9191 H   0  0  0  0  0  0  0  0  0  0  0  0
   -0.1625   -0.6997    0.0376 C   0  0  0  0  0  0  0  0  0  0  0  0
   -1.4018    0.8424    0.8403 H   0  0  0  0  0  0  0  0  0  0  0  0
   -1.4100    0.9025   -0.9422 H   0  0  0  0  0  0  0  0  0  0  0  0
   -0.1277   -1.3811    0.9846 H   0  0  0  0  0  0  0  0  0  0  0  0
    0.7089   -0.1407   -0.0426 H   0  0  0  0  0  0  0  0  0  0  0  0
   -0.1678   -1.3608   -0.8030 H   0  0  0  0  0  0  0  0  0  0  0  0
  1  2  1  0  0  0  0
  1  5  1  0  0  0  0
  2  8  1  0  0  0  0
  3  1  1  0  0  0  0
  4  1  1  0  0  0  0
  6  2  1  0  0  0  0
  6  9  1  0  0  0  0
  6 10  1  0  0  0  0
  7  2  1  0  0  0  0
  9 12  1  0  0  0  0
 11  6  1  0  0  0  0
 13  9  1  0  0  0  0
 14  9  1  0  0  0  0
M  END
$$$$
