butane_opt
 OpenBabel08242015423D

 14 13  0  0  0  0  0  0  0  0999 V2000
   -3.9604    0.2801    0.0587 C   0  0  0  0  0  0  0  0  0  0  0  0
   -2.6962   -0.6283   -0.0317 C   0  0  0  0  0  0  0  0  0  0  0  0
   -4.8646   -0.2435    0.2206 H   0  0  0  0  0  0  0  0  0  0  0  0
   -4.2428    1.0262   -0.9054 H   0  0  0  0  0  0  0  0  0  0  0  0
   -3.9063    0.8305    0.8259 H   0  0  0  0  0  0  0  0  0  0  0  0
   -1.3898    0.1606   -0.0057 C   0  0  0  0  0  0  0  0  0  0  0  0
   -2.7422   -1.3164   -0.8614 H   0  0  0  0  0  0  0  0  0  0  0  0
   -2.7086   -1.2551    0.8433 H   0  0  0  0  0  0  0  0  0  0  0  0
   -0.1559   -0.6822    0.0676 C   0  0  0  0  0  0  0  0  0  0  0  0
   -1.3116    0.8206    0.8626 H   0  0  0  0  0  0  0  0  0  0  0  0
   -1.3263    0.7703   -0.8741 H   0  0  0  0  0  0  0  0  0  0  0  0
   -0.1905   -1.3321    1.0066 H   0  0  0  0  0  0  0  0  0  0  0  0
    0.8460   -0.0039    0.0365 H   0  0  0  0  0  0  0  0  0  0  0  0
   -0.1535   -1.3158   -0.7953 H   0  0  0  0  0  0  0  0  0  0  0  0
  1  3  1  0  0  0  0
  1  5  1  0  0  0  0
  2  6  1  0  0  0  0
  2  1  1  0  0  0  0
  2  8  1  0  0  0  0
  4  1  1  0  0  0  0
  6  9  1  0  0  0  0
  6 10  1  0  0  0  0
  7  2  1  0  0  0  0
  9 12  1  0  0  0  0
 11  6  1  0  0  0  0
 13  9  1  0  0  0  0
 14  9  1  0  0  0  0
M  END
$$$$
