14
butane_opt
C  -3.968485   0.275311   0.035124
C  -2.704401  -0.619043   0.048872
H  -4.869975  -0.320851  -0.105601
H  -3.915183   0.758995  -0.784145
H  -4.072638   1.020335   0.939637
C  -1.383955   0.196188  -0.020920
H  -2.764107  -1.345261  -0.816535
H  -2.787876  -1.233274   0.899145
C  -0.142561  -0.709120   0.051705
H  -1.411730   0.783370   0.730512
H  -1.378077   0.821269  -0.942989
H  -0.074313  -1.267806   0.902503
H   0.800468  -0.035119   0.070517
H  -0.164566  -1.363096  -0.809548
