butane_opt
 OpenBabel08242015423D

 14 13  0  0  0  0  0  0  0  0999 V2000
   -3.9506    0.2580   -0.0165 C   0  0  0  0  0  0  0  0  0  0  0  0
   -2.6995   -0.6143    0.0656 C   0  0  0  0  0  0  0  0  0  0  0  0
   -4.9022   -0.3585    0.0440 H   0  0  0  0  0  0  0  0  0  0  0  0
   -3.9453    0.9304   -0.9504 H   0  0  0  0  0  0  0  0  0  0  0  0
   -4.0014    0.8931    0.8171 H   0  0  0  0  0  0  0  0  0  0  0  0
   -1.4130    0.1948    0.0434 C   0  0  0  0  0  0  0  0  0  0  0  0
   -2.7221   -1.1672   -0.7253 H   0  0  0  0  0  0  0  0  0  0  0  0
   -2.7820   -1.4007    1.0639 H   0  0  0  0  0  0  0  0  0  0  0  0
   -0.1392   -0.6909   -0.0012 C   0  0  0  0  0  0  0  0  0  0  0  0
   -1.3277    0.8999    0.9531 H   0  0  0  0  0  0  0  0  0  0  0  0
   -1.4208    0.8259   -0.8412 H   0  0  0  0  0  0  0  0  0  0  0  0
   -0.0692   -1.1531    0.8189 H   0  0  0  0  0  0  0  0  0  0  0  0
    0.6996   -0.2235    0.0944 H   0  0  0  0  0  0  0  0  0  0  0  0
   -0.1155   -1.5025   -0.9441 H   0  0  0  0  0  0  0  0  0  0  0  0
  1  3  1  0  0  0  0
  1  2  1  0  0  0  0
  1  5  1  0  0  0  0
  2  8  1  0  0  0  0
  4  1  1  0  0  0  0
  6  2  1  0  0  0  0
  6 10  1  0  0  0  0
  7  2  1  0  0  0  0
  9  6  1  0  0  0  0
  9 13  1  0  0  0  0
  9 12  1  0  0  0  0
 11  6  1  0  0  0  0
 14  9  1  0  0  0  0
M  END
$$$$
