14
butane_opt
C  -3.932148   0.284917  -0.029189
C  -2.668166  -0.645804   0.078909
H  -4.796859  -0.293030   0.171849
H  -3.996352   1.078363  -1.066428
H  -3.962649   0.822136   0.733796
C  -1.414663   0.169911   0.074830
H  -2.685960  -1.287817  -0.769063
H  -2.784638  -1.364204   1.029973
C  -0.190622  -0.673267  -0.019157
H  -1.450171   0.872420   0.960614
H  -1.383375   0.738032  -0.811059
H  -0.104507  -1.171555   0.801566
H   0.814283  -0.012121   0.085268
H  -0.229875  -1.453101  -0.983913
