butane_opt
 OpenBabel08242015423D

 14 13  0  0  0  0  0  0  0  0999 V2000
   -3.9562    0.2812   -0.0296 C   0  0  0  0  0  0  0  0  0  0  0  0
   -2.7008   -0.6415    0.0598 C   0  0  0  0  0  0  0  0  0  0  0  0
   -4.8233   -0.2914    0.2262 H   0  0  0  0  0  0  0  0  0  0  0  0
   -4.1035    1.0825   -1.0321 H   0  0  0  0  0  0  0  0  0  0  0  0
   -3.9687    0.7329    0.6570 H   0  0  0  0  0  0  0  0  0  0  0  0
   -1.4105    0.1825    0.0637 C   0  0  0  0  0  0  0  0  0  0  0  0
   -2.6846   -1.2388   -0.7206 H   0  0  0  0  0  0  0  0  0  0  0  0
   -2.7023   -1.3397    1.0056 H   0  0  0  0  0  0  0  0  0  0  0  0
   -0.1504   -0.6798   -0.0043 C   0  0  0  0  0  0  0  0  0  0  0  0
   -1.2716    0.9181    1.0224 H   0  0  0  0  0  0  0  0  0  0  0  0
   -1.3679    0.6735   -0.7126 H   0  0  0  0  0  0  0  0  0  0  0  0
   -0.0083   -1.1845    0.8355 H   0  0  0  0  0  0  0  0  0  0  0  0
    0.7338   -0.0775    0.0052 H   0  0  0  0  0  0  0  0  0  0  0  0
   -0.2197   -1.4478   -0.9534 H   0  0  0  0  0  0  0  0  0  0  0  0
  1  2  1  0  0  0  0
  1  3  1  0  0  0  0
  1  5  1  0  0  0  0
  2  6  1  0  0  0  0
  2  8  1  0  0  0  0
  4  1  1  0  0  0  0
  6 10  1  0  0  0  0
  7  2  1  0  0  0  0
  9 13  1  0  0  0  0
  9  6  1  0  0  0  0
  9 12  1  0  0  0  0
 11  6  1  0  0  0  0
 14  9  1  0  0  0  0
M  END
$$$$
