14
butane_opt
C  -3.944008   0.267647   0.045577
C  -2.667378  -0.633093   0.005445
H  -4.844132  -0.298199   0.022801
H  -4.095635   0.935361  -0.871855
H  -3.944466   1.006304   0.957646
C  -1.410249   0.173331  -0.012176
H  -2.663592  -1.392771  -0.909698
H  -2.692308  -1.226950   0.870624
C  -0.193305  -0.680962   0.047203
H  -1.326050   0.925147   0.908131
H  -1.356949   0.708000  -0.887018
H  -0.134658  -1.443526   1.110444
H   0.750933  -0.049078  -0.116001
H  -0.137761  -1.145147  -0.662023
