14
butane_opt
C  -3.960372   0.280124   0.058653
C  -2.696175  -0.628327  -0.031716
H  -4.864576  -0.243501   0.220598
H  -4.242765   1.026179  -0.905411
H  -3.906332   0.830519   0.825875
C  -1.389812   0.160570  -0.005732
H  -2.742204  -1.316429  -0.861395
H  -2.708647  -1.255053   0.843302
C  -0.155948  -0.682156   0.067622
H  -1.311581   0.820641   0.862588
H  -1.326306   0.770280  -0.874055
H  -0.190533  -1.332147   1.006551
H   0.846028  -0.003898   0.036456
H  -0.153496  -1.315773  -0.795343
