14
butane_opt
C  -3.956172   0.281216  -0.029644
C  -2.700800  -0.641509   0.059835
H  -4.823263  -0.291443   0.226161
H  -4.103474   1.082454  -1.032114
H  -3.968749   0.732909   0.656996
C  -1.410540   0.182531   0.063707
H  -2.684624  -1.238798  -0.720634
H  -2.702311  -1.339656   1.005555
C  -0.150363  -0.679796  -0.004288
H  -1.271565   0.918099   1.022424
H  -1.367886   0.673501  -0.712637
H  -0.008251  -1.184497   0.835508
H   0.733814  -0.077518   0.005234
H  -0.219655  -1.447750  -0.953436
