14
butane_opt
C  -3.966667   0.286543  -0.027555
C  -2.695676  -0.643975   0.080661
H  -4.847186  -0.253939  -0.095483
H  -3.917007   0.771111  -0.830738
H  -4.107613   1.060447   0.877701
C  -1.378050   0.159092   0.043989
H  -2.671477  -1.234538  -0.692299
H  -2.781636  -1.349837   1.045751
C  -0.176649  -0.677803  -0.002756
H  -1.348993   0.970315   0.939586
H  -1.300042   0.795819  -0.849992
H  -0.008330  -1.295441   0.887702
H   0.752953  -0.081952  -0.133895
H  -0.203373  -1.342119  -0.827868
