butane_opt
 OpenBabel08242015423D

 14 13  0  0  0  0  0  0  0  0999 V2000
   -3.9399    0.2547    0.0448 C   0  0  0  0  0  0  0  0  0  0  0  0
   -2.6914   -0.6088   -0.0082 C   0  0  0  0  0  0  0  0  0  0  0  0
   -4.8279   -0.3601    0.3044 H   0  0  0  0  0  0  0  0  0  0  0  0
   -4.0961    0.9563   -0.9077 H   0  0  0  0  0  0  0  0  0  0  0  0
   -3.8174    0.8389    0.8430 H   0  0  0  0  0  0  0  0  0  0  0  0
   -1.4040    0.1889   -0.0013 C   0  0  0  0  0  0  0  0  0  0  0  0
   -2.7171   -1.3624   -0.9516 H   0  0  0  0  0  0  0  0  0  0  0  0
   -2.6701   -1.1588    0.8272 H   0  0  0  0  0  0  0  0  0  0  0  0
   -0.1788   -0.6970    0.0681 C   0  0  0  0  0  0  0  0  0  0  0  0
   -1.5038    0.8842    0.8092 H   0  0  0  0  0  0  0  0  0  0  0  0
   -1.3399    0.8964   -0.9706 H   0  0  0  0  0  0  0  0  0  0  0  0
   -0.0683   -1.3442    0.9847 H   0  0  0  0  0  0  0  0  0  0  0  0
    0.7293   -0.0959    0.0620 H   0  0  0  0  0  0  0  0  0  0  0  0
   -0.1442   -1.3799   -0.8042 H   0  0  0  0  0  0  0  0  0  0  0  0
  1  3  1  0  0  0  0
  1  5  1  0  0  0  0
  2  6  1  0  0  0  0
  2  1  1  0  0  0  0
  2  8  1  0  0  0  0
  4  1  1  0  0  0  0
  6  9  1  0  0  0  0
  6 10  1  0  0  0  0
  7  2  1  0  0  0  0
  9 12  1  0  0  0  0
 11  6  1  0  0  0  0
 13  9  1  0  0  0  0
 14  9  1  0  0  0  0
M  END
$$$$
