butane_opt
 OpenBabel08242015423D

 14 13  0  0  0  0  0  0  0  0999 V2000
   -3.9134    0.2590    0.0380 C   0  0  0  0  0  0  0  0  0  0  0  0
   -2.7177   -0.6134    0.0253 C   0  0  0  0  0  0  0  0  0  0  0  0
   -4.8072   -0.3383   -0.0669 H   0  0  0  0  0  0  0  0  0  0  0  0
   -3.8462    0.7757   -0.7626 H   0  0  0  0  0  0  0  0  0  0  0  0
   -4.0074    1.0327    0.9526 H   0  0  0  0  0  0  0  0  0  0  0  0
   -1.4179    0.1965   -0.0134 C   0  0  0  0  0  0  0  0  0  0  0  0
   -2.7207   -1.3848   -0.8662 H   0  0  0  0  0  0  0  0  0  0  0  0
   -2.6546   -1.1617    0.8243 H   0  0  0  0  0  0  0  0  0  0  0  0
   -0.1636   -0.7003    0.0546 C   0  0  0  0  0  0  0  0  0  0  0  0
   -1.4482    0.9002    0.8720 H   0  0  0  0  0  0  0  0  0  0  0  0
   -1.3443    0.8545   -0.9104 H   0  0  0  0  0  0  0  0  0  0  0  0
   -0.1240   -1.5097    1.0513 H   0  0  0  0  0  0  0  0  0  0  0  0
    0.7383   -0.1473   -0.1799 H   0  0  0  0  0  0  0  0  0  0  0  0
   -0.2542   -1.1957   -0.7031 H   0  0  0  0  0  0  0  0  0  0  0  0
  1  5  1  0  0  0  0
  2  1  1  0  0  0  0
  2  8  1  0  0  0  0
  3  1  1  0  0  0  0
  4  1  1  0  0  0  0
  6  2  1  0  0  0  0
  6  9  1  0  0  0  0
  6 10  1  0  0  0  0
  7  2  1  0  0  0  0
  9 12  1  0  0  0  0
 11  6  1  0  0  0  0
 13  9  1  0  0  0  0
 14  9  1  0  0  0  0
M  END
$$$$
