butane_opt
 OpenBabel08242015423D

 14 13  0  0  0  0  0  0  0  0999 V2000
   -3.9347    0.2430    0.0454 C   0  0  0  0  0  0  0  0  0  0  0  0
   -2.7017   -0.5821    0.0264 C   0  0  0  0  0  0  0  0  0  0  0  0
   -4.8831   -0.3966   -0.1638 H   0  0  0  0  0  0  0  0  0  0  0  0
   -3.8723    0.6450   -0.7755 H   0  0  0  0  0  0  0  0  0  0  0  0
   -4.0069    1.0598    1.0387 H   0  0  0  0  0  0  0  0  0  0  0  0
   -1.4319    0.2065   -0.0264 C   0  0  0  0  0  0  0  0  0  0  0  0
   -2.8226   -1.3134   -0.8852 H   0  0  0  0  0  0  0  0  0  0  0  0
   -2.6133   -1.1504    0.8589 H   0  0  0  0  0  0  0  0  0  0  0  0
   -0.1441   -0.7051    0.0694 C   0  0  0  0  0  0  0  0  0  0  0  0
   -1.4136    0.7821    0.7640 H   0  0  0  0  0  0  0  0  0  0  0  0
   -1.3531    0.8936   -0.9196 H   0  0  0  0  0  0  0  0  0  0  0  0
   -0.0853   -1.4710    1.0668 H   0  0  0  0  0  0  0  0  0  0  0  0
    0.7261   -0.1522   -0.1574 H   0  0  0  0  0  0  0  0  0  0  0  0
   -0.1360   -1.3286   -0.7525 H   0  0  0  0  0  0  0  0  0  0  0  0
  1  5  1  0  0  0  0
  2  1  1  0  0  0  0
  2  8  1  0  0  0  0
  3  1  1  0  0  0  0
  4  1  1  0  0  0  0
  6  2  1  0  0  0  0
  6  9  1  0  0  0  0
  6 10  1  0  0  0  0
  7  2  1  0  0  0  0
  9 12  1  0  0  0  0
 11  6  1  0  0  0  0
 13  9  1  0  0  0  0
 14  9  1  0  0  0  0
M  END
$$$$
