butane_opt
 OpenBabel08242015423D

 14 13  0  0  0  0  0  0  0  0999 V2000
   -3.9493    0.2481    0.0469 C   0  0  0  0  0  0  0  0  0  0  0  0
   -2.7294   -0.6047    0.0224 C   0  0  0  0  0  0  0  0  0  0  0  0
   -4.8635   -0.3506   -0.1587 H   0  0  0  0  0  0  0  0  0  0  0  0
   -3.8705    0.6562   -0.7032 H   0  0  0  0  0  0  0  0  0  0  0  0
   -4.0052    1.1527    1.0944 H   0  0  0  0  0  0  0  0  0  0  0  0
   -1.3946    0.2201   -0.0425 C   0  0  0  0  0  0  0  0  0  0  0  0
   -2.7434   -1.3667   -0.8503 H   0  0  0  0  0  0  0  0  0  0  0  0
   -2.7384   -1.1611    0.8962 H   0  0  0  0  0  0  0  0  0  0  0  0
   -0.1497   -0.7034    0.0754 C   0  0  0  0  0  0  0  0  0  0  0  0
   -1.3315    0.7598    0.6914 H   0  0  0  0  0  0  0  0  0  0  0  0
   -1.4292    0.9233   -0.9522 H   0  0  0  0  0  0  0  0  0  0  0  0
   -0.0628   -1.4472    1.0531 H   0  0  0  0  0  0  0  0  0  0  0  0
    0.7091   -0.2131   -0.0531 H   0  0  0  0  0  0  0  0  0  0  0  0
   -0.0109   -1.3537   -0.7681 H   0  0  0  0  0  0  0  0  0  0  0  0
  1  5  1  0  0  0  0
  2  1  1  0  0  0  0
  2  8  1  0  0  0  0
  3  1  1  0  0  0  0
  4  1  1  0  0  0  0
  6  2  1  0  0  0  0
  6  9  1  0  0  0  0
  6 10  1  0  0  0  0
  7  2  1  0  0  0  0
  9 12  1  0  0  0  0
 11  6  1  0  0  0  0
 13  9  1  0  0  0  0
 14  9  1  0  0  0  0
M  END
$$$$
