14
butane_opt
C  -3.939885   0.254660   0.044829
C  -2.691429  -0.608814  -0.008186
H  -4.827890  -0.360126   0.304366
H  -4.096070   0.956328  -0.907706
H  -3.817435   0.838891   0.843028
C  -1.404045   0.188895  -0.001324
H  -2.717121  -1.362440  -0.951648
H  -2.670088  -1.158817   0.827173
C  -0.178796  -0.697015   0.068131
H  -1.503755   0.884244   0.809221
H  -1.339925   0.896430  -0.970550
H  -0.068343  -1.344235   0.984722
H   0.729345  -0.095936   0.061954
H  -0.144172  -1.379907  -0.804222
