14
butane_opt
C  -3.950220   0.253652   0.063596
C  -2.707058  -0.586117  -0.001913
H  -4.892261  -0.346050  -0.153049
H  -3.855472   0.639689  -0.690523
H  -3.923719   1.178830   1.064240
C  -1.413390   0.179429  -0.043660
H  -2.753000  -1.243102  -0.841606
H  -2.658970  -1.304792   0.880441
C  -0.161550  -0.694595   0.067463
H  -1.427501   0.810646   0.769906
H  -1.264885   0.829152  -0.970630
H  -0.081386  -1.517816   1.093594
H   0.745123  -0.083144   0.009563
H  -0.136251  -1.263322  -0.708708
