butane_opt
 OpenBabel08242015423D

 14 13  0  0  0  0  0  0  0  0999 V2000
   -3.9460    0.2561   -0.0496 C   0  0  0  0  0  0  0  0  0  0  0  0
   -2.7248   -0.6122    0.1091 C   0  0  0  0  0  0  0  0  0  0  0  0
   -4.8421   -0.3905   -0.0897 H   0  0  0  0  0  0  0  0  0  0  0  0
   -3.8283    0.8077   -0.9175 H   0  0  0  0  0  0  0  0  0  0  0  0
   -3.9905    1.0342    0.8713 H   0  0  0  0  0  0  0  0  0  0  0  0
   -1.4041    0.2182    0.0598 C   0  0  0  0  0  0  0  0  0  0  0  0
   -2.6532   -1.2295   -0.7200 H   0  0  0  0  0  0  0  0  0  0  0  0
   -2.8166   -1.3408    1.0981 H   0  0  0  0  0  0  0  0  0  0  0  0
   -0.1515   -0.7105   -0.0223 C   0  0  0  0  0  0  0  0  0  0  0  0
   -1.2708    0.9437    0.9492 H   0  0  0  0  0  0  0  0  0  0  0  0
   -1.4830    0.7884   -0.7814 H   0  0  0  0  0  0  0  0  0  0  0  0
   -0.0096   -1.3146    0.8689 H   0  0  0  0  0  0  0  0  0  0  0  0
    0.7224   -0.1533   -0.0955 H   0  0  0  0  0  0  0  0  0  0  0  0
   -0.1350   -1.4397   -0.8912 H   0  0  0  0  0  0  0  0  0  0  0  0
  1  2  1  0  0  0  0
  1  5  1  0  0  0  0
  2  8  1  0  0  0  0
  3  1  1  0  0  0  0
  4  1  1  0  0  0  0
  6  2  1  0  0  0  0
  6 10  1  0  0  0  0
  7  2  1  0  0  0  0
  9  6  1  0  0  0  0
  9 12  1  0  0  0  0
 11  6  1  0  0  0  0
 13  9  1  0  0  0  0
 14  9  1  0  0  0  0
M  END
$$$$
