14
butane_opt
C  -3.913352   0.258986   0.038041
C  -2.717675  -0.613373   0.025333
H  -4.807192  -0.338339  -0.066884
H  -3.846151   0.775698  -0.762578
H  -4.007369   1.032671   0.952611
C  -1.417948   0.196488  -0.013383
H  -2.720689  -1.384761  -0.866212
H  -2.654591  -1.161695   0.824284
C  -0.163562  -0.700328   0.054557
H  -1.448176   0.900175   0.871951
H  -1.344311   0.854474  -0.910441
H  -0.124039  -1.509684   1.051268
H   0.738285  -0.147338  -0.179854
H  -0.254230  -1.195724  -0.703056
