14
butane_opt
C  -3.934713   0.243034   0.045417
C  -2.701709  -0.582093   0.026411
H  -4.883113  -0.396561  -0.163803
H  -3.872257   0.644968  -0.775544
H  -4.006873   1.059814   1.038679
C  -1.431946   0.206493  -0.026367
H  -2.822592  -1.313380  -0.885229
H  -2.613321  -1.150397   0.858920
C  -0.144083  -0.705068   0.069386
H  -1.413563   0.782095   0.763963
H  -1.353093   0.893635  -0.919553
H  -0.085259  -1.471013   1.066823
H   0.726148  -0.152234  -0.157433
H  -0.136019  -1.328561  -0.752528
