butane_opt
 OpenBabel08242015423D

 14 13  0  0  0  0  0  0  0  0999 V2000
   -3.9357    0.2834   -0.0017 C   0  0  0  0  0  0  0  0  0  0  0  0
   -2.6856   -0.6385    0.0695 C   0  0  0  0  0  0  0  0  0  0  0  0
   -4.8371   -0.2795    0.0452 H   0  0  0  0  0  0  0  0  0  0  0  0
   -3.9660    1.0144   -1.0020 H   0  0  0  0  0  0  0  0  0  0  0  0
   -3.9552    0.8525    0.8125 H   0  0  0  0  0  0  0  0  0  0  0  0
   -1.4059    0.1456    0.0328 C   0  0  0  0  0  0  0  0  0  0  0  0
   -2.6742   -1.2267   -0.7332 H   0  0  0  0  0  0  0  0  0  0  0  0
   -2.7200   -1.2524    0.9809 H   0  0  0  0  0  0  0  0  0  0  0  0
   -0.1738   -0.6656    0.0039 C   0  0  0  0  0  0  0  0  0  0  0  0
   -1.3533    0.8710    0.8931 H   0  0  0  0  0  0  0  0  0  0  0  0
   -1.5142    0.7372   -0.8467 H   0  0  0  0  0  0  0  0  0  0  0  0
   -0.2899   -1.1814    0.8229 H   0  0  0  0  0  0  0  0  0  0  0  0
    0.8172   -0.0255    0.1369 H   0  0  0  0  0  0  0  0  0  0  0  0
   -0.1335   -1.4711   -0.9453 H   0  0  0  0  0  0  0  0  0  0  0  0
  1  3  1  0  0  0  0
  1  2  1  0  0  0  0
  1  5  1  0  0  0  0
  2  8  1  0  0  0  0
  4  1  1  0  0  0  0
  6  2  1  0  0  0  0
  6 10  1  0  0  0  0
  7  2  1  0  0  0  0
  9  6  1  0  0  0  0
  9 13  1  0  0  0  0
  9 12  1  0  0  0  0
 11  6  1  0  0  0  0
 14  9  1  0  0  0  0
M  END
$$$$
