14
butane_opt
C  -3.959690   0.262153   0.048160
C  -2.693910  -0.615347  -0.002821
H  -4.885256  -0.325748   0.166404
H  -4.091087   0.953984  -0.888722
H  -3.892608   0.895731   0.868711
C  -1.402902   0.191393  -0.001807
H  -2.730593  -1.369432  -0.907669
H  -2.678019  -1.234854   0.841400
C  -0.149444  -0.692693   0.058892
H  -1.384053   0.814079   0.803831
H  -1.350686   0.837039  -0.916171
H  -0.176895  -1.343542   0.983106
H   0.757396  -0.091051   0.031756
H  -0.114278  -1.348632  -0.776901
