14
butane_opt
C  -3.930149   0.248030  -0.016974
C  -2.694815  -0.577407   0.085126
H  -4.897113  -0.429377   0.116297
H  -3.926033   0.930490  -0.980675
H  -3.883867   0.756515   0.748617
C  -1.416984   0.203869   0.043921
H  -2.623026  -1.262122  -0.764998
H  -2.775407  -1.311484   1.028891
C  -0.159267  -0.713086  -0.003865
H  -1.386829   0.850725   0.861813
H  -1.512856   0.916635  -0.859495
H  -0.171919  -1.131287   0.702669
H   0.711829  -0.144738   0.276195
H  -0.126515  -1.596409  -1.002502
