butane_opt
 OpenBabel08242015423D

 14 13  0  0  0  0  0  0  0  0999 V2000
   -3.9307    0.2476    0.0211 C   0  0  0  0  0  0  0  0  0  0  0  0
   -2.6899   -0.5811    0.0456 C   0  0  0  0  0  0  0  0  0  0  0  0
   -4.9470   -0.4117    0.0722 H   0  0  0  0  0  0  0  0  0  0  0  0
   -3.8901    0.9084   -0.9449 H   0  0  0  0  0  0  0  0  0  0  0  0
   -3.9144    0.8280    0.8458 H   0  0  0  0  0  0  0  0  0  0  0  0
   -1.4298    0.1947    0.0050 C   0  0  0  0  0  0  0  0  0  0  0  0
   -2.6603   -1.2366   -0.7595 H   0  0  0  0  0  0  0  0  0  0  0  0
   -2.6889   -1.2922    1.0198 H   0  0  0  0  0  0  0  0  0  0  0  0
   -0.1588   -0.7093    0.0413 C   0  0  0  0  0  0  0  0  0  0  0  0
   -1.4226    0.8253    0.8033 H   0  0  0  0  0  0  0  0  0  0  0  0
   -1.3584    0.9005   -0.9275 H   0  0  0  0  0  0  0  0  0  0  0  0
   -0.2482   -1.0784    0.7357 H   0  0  0  0  0  0  0  0  0  0  0  0
    0.7409   -0.1617    0.1936 H   0  0  0  0  0  0  0  0  0  0  0  0
   -0.0987   -1.5961   -0.9896 H   0  0  0  0  0  0  0  0  0  0  0  0
  1  2  1  0  0  0  0
  1  3  1  0  0  0  0
  1  5  1  0  0  0  0
  2  8  1  0  0  0  0
  4  1  1  0  0  0  0
  6  9  1  0  0  0  0
  6  2  1  0  0  0  0
  6 10  1  0  0  0  0
  7  2  1  0  0  0  0
  9 13  1  0  0  0  0
  9 12  1  0  0  0  0
 11  6  1  0  0  0  0
 14  9  1  0  0  0  0
M  END
$$$$
