butane_opt
 OpenBabel08242015423D

 14 13  0  0  0  0  0  0  0  0999 V2000
   -3.9533    0.2717    0.0234 C   0  0  0  0  0  0  0  0  0  0  0  0
   -2.6991   -0.6139    0.0253 C   0  0  0  0  0  0  0  0  0  0  0  0
   -4.8743   -0.3162    0.1633 H   0  0  0  0  0  0  0  0  0  0  0  0
   -3.9576    0.9747   -0.9534 H   0  0  0  0  0  0  0  0  0  0  0  0
   -3.9698    0.8065    0.8015 H   0  0  0  0  0  0  0  0  0  0  0  0
   -1.3990    0.1788    0.0209 C   0  0  0  0  0  0  0  0  0  0  0  0
   -2.7163   -1.3385   -0.8561 H   0  0  0  0  0  0  0  0  0  0  0  0
   -2.6971   -1.2414    0.9147 H   0  0  0  0  0  0  0  0  0  0  0  0
   -0.1575   -0.6902    0.0336 C   0  0  0  0  0  0  0  0  0  0  0  0
   -1.3471    0.8855    0.8950 H   0  0  0  0  0  0  0  0  0  0  0  0
   -1.3595    0.7943   -0.8425 H   0  0  0  0  0  0  0  0  0  0  0  0
   -0.1608   -1.3159    0.9036 H   0  0  0  0  0  0  0  0  0  0  0  0
    0.7495   -0.1188    0.0056 H   0  0  0  0  0  0  0  0  0  0  0  0
   -0.1794   -1.3548   -0.8360 H   0  0  0  0  0  0  0  0  0  0  0  0
  1  2  1  0  0  0  0
  1  3  1  0  0  0  0
  1  5  1  0  0  0  0
  2  8  1  0  0  0  0
  4  1  1  0  0  0  0
  6  2  1  0  0  0  0
  6  9  1  0  0  0  0
  6 10  1  0  0  0  0
  7  2  1  0  0  0  0
  9 12  1  0  0  0  0
 11  6  1  0  0  0  0
 13  9  1  0  0  0  0
 14  9  1  0  0  0  0
M  END
$$$$
