butane_opt
 OpenBabel08242015423D

 14 13  0  0  0  0  0  0  0  0999 V2000
   -3.9706    0.2768    0.0575 C   0  0  0  0  0  0  0  0  0  0  0  0
   -2.7005   -0.6414   -0.0240 C   0  0  0  0  0  0  0  0  0  0  0  0
   -4.8750   -0.2945    0.2533 H   0  0  0  0  0  0  0  0  0  0  0  0
   -4.1014    0.9840   -0.8903 H   0  0  0  0  0  0  0  0  0  0  0  0
   -3.8641    0.8515    0.8119 H   0  0  0  0  0  0  0  0  0  0  0  0
   -1.4078    0.1958   -0.0155 C   0  0  0  0  0  0  0  0  0  0  0  0
   -2.7349   -1.3404   -0.8897 H   0  0  0  0  0  0  0  0  0  0  0  0
   -2.6552   -1.2695    0.8913 H   0  0  0  0  0  0  0  0  0  0  0  0
   -0.1330   -0.6823    0.0672 C   0  0  0  0  0  0  0  0  0  0  0  0
   -1.3164    0.8162    0.8309 H   0  0  0  0  0  0  0  0  0  0  0  0
   -1.3701    0.7644   -0.8746 H   0  0  0  0  0  0  0  0  0  0  0  0
   -0.2411   -1.2711    0.9740 H   0  0  0  0  0  0  0  0  0  0  0  0
    0.7272   -0.1408    0.0808 H   0  0  0  0  0  0  0  0  0  0  0  0
   -0.0475   -1.3539   -0.7843 H   0  0  0  0  0  0  0  0  0  0  0  0
  1  3  1  0  0  0  0
  1  5  1  0  0  0  0
  2  6  1  0  0  0  0
  2  1  1  0  0  0  0
  2  8  1  0  0  0  0
  4  1  1  0  0  0  0
  6  9  1  0  0  0  0
  6 10  1  0  0  0  0
  7  2  1  0  0  0  0
  9 13  1  0  0  0  0
  9 12  1  0  0  0  0
 11  6  1  0  0  0  0
 14  9  1  0  0  0  0
M  END
$$$$
