14
butane_opt
C  -3.935733   0.283388  -0.001728
C  -2.685556  -0.638507   0.069528
H  -4.837108  -0.279461   0.045230
H  -3.966027   1.014428  -1.001973
H  -3.955218   0.852526   0.812535
C  -1.405921   0.145608   0.032812
H  -2.674250  -1.226656  -0.733228
H  -2.719977  -1.252354   0.980897
C  -0.173848  -0.665621   0.003938
H  -1.353267   0.871036   0.893148
H  -1.514248   0.737193  -0.846745
H  -0.289851  -1.181365   0.822950
H   0.817179  -0.025524   0.136867
H  -0.133511  -1.471089  -0.945313
