butane_opt
 OpenBabel08242015423D

 14 13  0  0  0  0  0  0  0  0999 V2000
   -3.9081    0.2634   -0.0379 C   0  0  0  0  0  0  0  0  0  0  0  0
   -2.7058   -0.6132    0.1162 C   0  0  0  0  0  0  0  0  0  0  0  0
   -4.8982   -0.3628   -0.2289 H   0  0  0  0  0  0  0  0  0  0  0  0
   -3.8142    0.7752   -0.8951 H   0  0  0  0  0  0  0  0  0  0  0  0
   -4.0629    0.9778    0.8632 H   0  0  0  0  0  0  0  0  0  0  0  0
   -1.4261    0.2045    0.0556 C   0  0  0  0  0  0  0  0  0  0  0  0
   -2.7008   -1.1821   -0.6706 H   0  0  0  0  0  0  0  0  0  0  0  0
   -2.7388   -1.3174    1.0367 H   0  0  0  0  0  0  0  0  0  0  0  0
   -0.1770   -0.7037   -0.0157 C   0  0  0  0  0  0  0  0  0  0  0  0
   -1.2985    0.8573    0.8855 H   0  0  0  0  0  0  0  0  0  0  0  0
   -1.4030    0.8399   -0.8122 H   0  0  0  0  0  0  0  0  0  0  0  0
    0.0258   -1.2598    0.8362 H   0  0  0  0  0  0  0  0  0  0  0  0
    0.7354   -0.1159   -0.0374 H   0  0  0  0  0  0  0  0  0  0  0  0
   -0.2588   -1.5118   -0.9535 H   0  0  0  0  0  0  0  0  0  0  0  0
  1  2  1  0  0  0  0
  1  5  1  0  0  0  0
  2  8  1  0  0  0  0
  3  1  1  0  0  0  0
  4  1  1  0  0  0  0
  6  2  1  0  0  0  0
  6 10  1  0  0  0  0
  7  2  1  0  0  0  0
  9  6  1  0  0  0  0
  9 12  1  0  0  0  0
 11  6  1  0  0  0  0
 13  9  1  0  0  0  0
 14  9  1  0  0  0  0
M  END
$$$$
