14
butane_opt
C  -3.908124   0.263384  -0.037929
C  -2.705794  -0.613174   0.116165
H  -4.898216  -0.362795  -0.228907
H  -3.814192   0.775234  -0.895067
H  -4.062892   0.977795   0.863152
C  -1.426117   0.204503   0.055602
H  -2.700768  -1.182081  -0.670583
H  -2.738838  -1.317387   1.036725
C  -0.177038  -0.703712  -0.015735
H  -1.298541   0.857285   0.885527
H  -1.402997   0.839911  -0.812182
H   0.025801  -1.259778   0.836210
H   0.735371  -0.115926  -0.037429
H  -0.258797  -1.511751  -0.953487
