14
butane_opt
C  -3.951428   0.281459   0.056138
C  -2.695036  -0.649543  -0.023217
H  -4.839056  -0.262615   0.032224
H  -4.076954   0.776607  -0.770685
H  -4.062850   1.103266   1.012556
C  -1.395613   0.175878  -0.022986
H  -2.714988  -1.418402  -0.923988
H  -2.635751  -1.245832   0.869018
C  -0.152972  -0.683640   0.075906
H  -1.479147   0.885969   0.871494
H  -1.295237   0.800846  -0.934376
H  -0.084813  -1.484848   1.132130
H   0.777573  -0.030410  -0.236432
H  -0.267606  -1.075197  -0.612650
