butane_opt
 OpenBabel08242015423D

 14 13  0  0  0  0  0  0  0  0999 V2000
   -3.9514    0.2815    0.0561 C   0  0  0  0  0  0  0  0  0  0  0  0
   -2.6950   -0.6495   -0.0232 C   0  0  0  0  0  0  0  0  0  0  0  0
   -4.8391   -0.2626    0.0322 H   0  0  0  0  0  0  0  0  0  0  0  0
   -4.0770    0.7766   -0.7707 H   0  0  0  0  0  0  0  0  0  0  0  0
   -4.0629    1.1033    1.0126 H   0  0  0  0  0  0  0  0  0  0  0  0
   -1.3956    0.1759   -0.0230 C   0  0  0  0  0  0  0  0  0  0  0  0
   -2.7150   -1.4184   -0.9240 H   0  0  0  0  0  0  0  0  0  0  0  0
   -2.6358   -1.2458    0.8690 H   0  0  0  0  0  0  0  0  0  0  0  0
   -0.1530   -0.6836    0.0759 C   0  0  0  0  0  0  0  0  0  0  0  0
   -1.4791    0.8860    0.8715 H   0  0  0  0  0  0  0  0  0  0  0  0
   -1.2952    0.8008   -0.9344 H   0  0  0  0  0  0  0  0  0  0  0  0
   -0.0848   -1.4848    1.1321 H   0  0  0  0  0  0  0  0  0  0  0  0
    0.7776   -0.0304   -0.2364 H   0  0  0  0  0  0  0  0  0  0  0  0
   -0.2676   -1.0752   -0.6127 H   0  0  0  0  0  0  0  0  0  0  0  0
  1  5  1  0  0  0  0
  2  6  1  0  0  0  0
  2  1  1  0  0  0  0
  2  8  1  0  0  0  0
  3  1  1  0  0  0  0
  4  1  1  0  0  0  0
  6  9  1  0  0  0  0
  6 10  1  0  0  0  0
  7  2  1  0  0  0  0
  9 12  1  0  0  0  0
 11  6  1  0  0  0  0
 13  9  1  0  0  0  0
 14  9  1  0  0  0  0
M  END
$$$$
