14
butane_opt
C  -3.908258   0.242586   0.065460
C  -2.702850  -0.587030   0.014499
H  -4.830887  -0.373944  -0.179700
H  -3.902022   0.654932  -0.665094
H  -4.019368   1.107835   1.018930
C  -1.423507   0.205148  -0.043931
H  -2.745176  -1.279293  -0.870098
H  -2.755481  -1.137838   0.861944
C  -0.165511  -0.719104   0.065972
H  -1.381017   0.764253   0.733369
H  -1.403504   0.904654  -1.022265
H  -0.237427  -1.417171   1.087997
H   0.753478  -0.088330   0.005491
H  -0.087009  -1.323908  -0.724329
