14
butane_opt
C  -3.954320   0.274222   0.014329
C  -2.695795  -0.630406   0.031643
H  -4.900375  -0.369851   0.161436
H  -3.997952   1.037791  -0.973898
H  -3.892938   0.796458   0.805265
C  -1.409921   0.170303   0.023613
H  -2.638845  -1.230378  -0.751719
H  -2.670650  -1.214345   0.948194
C  -0.152970  -0.677341   0.029991
H  -1.460931   0.860131   0.897196
H  -1.338851   0.793730  -0.871935
H  -0.184759  -1.185111   0.863665
H   0.773444  -0.118537   0.071136
H  -0.155719  -1.490439  -0.943589
