butane_opt
 OpenBabel08242015423D

 14 13  0  0  0  0  0  0  0  0999 V2000
   -3.9114    0.2468   -0.0018 C   0  0  0  0  0  0  0  0  0  0  0  0
   -2.7075   -0.5959    0.0185 C   0  0  0  0  0  0  0  0  0  0  0  0
   -4.8911   -0.4035    0.3565 H   0  0  0  0  0  0  0  0  0  0  0  0
   -4.0485    1.0051   -0.9449 H   0  0  0  0  0  0  0  0  0  0  0  0
   -3.7703    0.8148    0.8329 H   0  0  0  0  0  0  0  0  0  0  0  0
   -1.4238    0.2044    0.0180 C   0  0  0  0  0  0  0  0  0  0  0  0
   -2.7280   -1.1856   -0.8185 H   0  0  0  0  0  0  0  0  0  0  0  0
   -2.7615   -1.2334    0.9366 H   0  0  0  0  0  0  0  0  0  0  0  0
   -0.1611   -0.7109    0.0367 C   0  0  0  0  0  0  0  0  0  0  0  0
   -1.3334    0.8986    0.8992 H   0  0  0  0  0  0  0  0  0  0  0  0
   -1.4232    0.7715   -0.8095 H   0  0  0  0  0  0  0  0  0  0  0  0
   -0.1644   -1.2500    0.9002 H   0  0  0  0  0  0  0  0  0  0  0  0
    0.6936   -0.1909    0.1042 H   0  0  0  0  0  0  0  0  0  0  0  0
   -0.1301   -1.4498   -0.8826 H   0  0  0  0  0  0  0  0  0  0  0  0
  1  2  1  0  0  0  0
  1  3  1  0  0  0  0
  1  5  1  0  0  0  0
  2  8  1  0  0  0  0
  4  1  1  0  0  0  0
  6  2  1  0  0  0  0
  6  9  1  0  0  0  0
  6 10  1  0  0  0  0
  7  2  1  0  0  0  0
  9 13  1  0  0  0  0
  9 12  1  0  0  0  0
 11  6  1  0  0  0  0
 14  9  1  0  0  0  0
M  END
$$$$
