butane_opt
 OpenBabel08242015423D

 14 13  0  0  0  0  0  0  0  0999 V2000
   -3.9463    0.2566   -0.0118 C   0  0  0  0  0  0  0  0  0  0  0  0
   -2.7088   -0.6107    0.0514 C   0  0  0  0  0  0  0  0  0  0  0  0
   -4.8429   -0.3246    0.0836 H   0  0  0  0  0  0  0  0  0  0  0  0
   -3.9885    0.9138   -0.9319 H   0  0  0  0  0  0  0  0  0  0  0  0
   -3.9712    0.8963    0.8246 H   0  0  0  0  0  0  0  0  0  0  0  0
   -1.3951    0.1977    0.0533 C   0  0  0  0  0  0  0  0  0  0  0  0
   -2.7098   -1.2722   -0.7671 H   0  0  0  0  0  0  0  0  0  0  0  0
   -2.7977   -1.2723    0.9519 H   0  0  0  0  0  0  0  0  0  0  0  0
   -0.1574   -0.7009    0.0048 C   0  0  0  0  0  0  0  0  0  0  0  0
   -1.3855    0.9341    0.9578 H   0  0  0  0  0  0  0  0  0  0  0  0
   -1.4044    0.8137   -0.8177 H   0  0  0  0  0  0  0  0  0  0  0  0
   -0.0554   -1.4008    0.9078 H   0  0  0  0  0  0  0  0  0  0  0  0
    0.7581   -0.1158   -0.0996 H   0  0  0  0  0  0  0  0  0  0  0  0
   -0.1391   -1.3480   -0.8398 H   0  0  0  0  0  0  0  0  0  0  0  0
  1  2  1  0  0  0  0
  1  3  1  0  0  0  0
  1  5  1  0  0  0  0
  2  6  1  0  0  0  0
  2  8  1  0  0  0  0
  4  1  1  0  0  0  0
  6 10  1  0  0  0  0
  7  2  1  0  0  0  0
  9  6  1  0  0  0  0
  9 12  1  0  0  0  0
 11  6  1  0  0  0  0
 13  9  1  0  0  0  0
 14  9  1  0  0  0  0
M  END
$$$$
