14
butane_opt
C  -3.931467   0.256111   0.006256
C  -2.694365  -0.597773   0.038211
H  -4.859889  -0.359753   0.045520
H  -3.904868   0.961592  -0.931569
H  -3.924746   0.801613   0.793652
C  -1.409012   0.193310   0.055342
H  -2.738324  -1.319430  -0.787067
H  -2.789788  -1.202153   0.923965
C  -0.160504  -0.707584   0.018102
H  -1.456451   0.918534   0.934594
H  -1.369965   0.860927  -0.878782
H  -0.115878  -1.359536   0.904375
H   0.761075  -0.135808  -0.162353
H  -0.276241  -1.364896  -0.835461
