butane_opt
 OpenBabel08242015423D

 14 13  0  0  0  0  0  0  0  0999 V2000
   -3.9543    0.2742    0.0143 C   0  0  0  0  0  0  0  0  0  0  0  0
   -2.6958   -0.6304    0.0316 C   0  0  0  0  0  0  0  0  0  0  0  0
   -4.9004   -0.3699    0.1614 H   0  0  0  0  0  0  0  0  0  0  0  0
   -3.9980    1.0378   -0.9739 H   0  0  0  0  0  0  0  0  0  0  0  0
   -3.8929    0.7965    0.8053 H   0  0  0  0  0  0  0  0  0  0  0  0
   -1.4099    0.1703    0.0236 C   0  0  0  0  0  0  0  0  0  0  0  0
   -2.6388   -1.2304   -0.7517 H   0  0  0  0  0  0  0  0  0  0  0  0
   -2.6707   -1.2143    0.9482 H   0  0  0  0  0  0  0  0  0  0  0  0
   -0.1530   -0.6773    0.0300 C   0  0  0  0  0  0  0  0  0  0  0  0
   -1.4609    0.8601    0.8972 H   0  0  0  0  0  0  0  0  0  0  0  0
   -1.3389    0.7937   -0.8719 H   0  0  0  0  0  0  0  0  0  0  0  0
   -0.1848   -1.1851    0.8637 H   0  0  0  0  0  0  0  0  0  0  0  0
    0.7734   -0.1185    0.0711 H   0  0  0  0  0  0  0  0  0  0  0  0
   -0.1557   -1.4904   -0.9436 H   0  0  0  0  0  0  0  0  0  0  0  0
  1  2  1  0  0  0  0
  1  3  1  0  0  0  0
  1  5  1  0  0  0  0
  2  8  1  0  0  0  0
  4  1  1  0  0  0  0
  6  9  1  0  0  0  0
  6  2  1  0  0  0  0
  6 10  1  0  0  0  0
  7  2  1  0  0  0  0
  9 13  1  0  0  0  0
  9 12  1  0  0  0  0
 11  6  1  0  0  0  0
 14  9  1  0  0  0  0
M  END
$$$$
