14
butane_opt
C  -3.919958   0.250200  -0.004956
C  -2.734621  -0.604650   0.069605
H  -4.818794  -0.362562   0.073373
H  -4.020879   0.958831  -0.978687
H  -3.896509   0.790141   0.781319
C  -1.408438   0.228609   0.028815
H  -2.743092  -1.236954  -0.764096
H  -2.739162  -1.283237   1.009080
C  -0.149262  -0.725352   0.020183
H  -1.412683   0.847419   0.847861
H  -1.435149   0.847870  -0.839531
H  -0.087285  -1.104897   0.730247
H   0.754143  -0.177073   0.163240
H  -0.067077  -1.537896  -0.983725
