14
butane_opt
C  -3.912207   0.239385   0.029547
C  -2.688978  -0.599805   0.055193
H  -4.873381  -0.384603  -0.206880
H  -3.870994   0.732404  -0.783658
H  -3.969680   1.083523   1.005823
C  -1.430404   0.206569  -0.017710
H  -2.748312  -1.263705  -0.836295
H  -2.778518  -1.160165   0.915130
C  -0.172582  -0.707692   0.038869
H  -1.421665   0.899517   0.821877
H  -1.466442   0.802727  -0.908539
H  -0.101039  -1.436276   1.009132
H   0.716581  -0.162101  -0.068449
H  -0.055242  -1.258441  -0.754030
