14
butane_opt
C  -3.959102   0.263895   0.001727
C  -2.678049  -0.642663   0.029964
H  -4.789691  -0.231678   0.132375
H  -4.065745   1.049142  -0.969107
H  -3.977758   0.886700   0.785589
C  -1.402069   0.168534   0.047592
H  -2.710551  -1.254884  -0.749975
H  -2.777490  -1.304956   0.986175
C  -0.158690  -0.671410   0.013469
H  -1.422153   0.950455   0.996170
H  -1.349935   0.769731  -0.850592
H  -0.125484  -1.275551   0.930419
H   0.752520  -0.079192  -0.092050
H  -0.193588  -1.393726  -0.868781
