butane_opt
 OpenBabel08242015423D

 14 13  0  0  0  0  0  0  0  0999 V2000
   -3.9328    0.2871   -0.0384 C   0  0  0  0  0  0  0  0  0  0  0  0
   -2.6907   -0.6315    0.1180 C   0  0  0  0  0  0  0  0  0  0  0  0
   -4.8606   -0.2789    0.0387 H   0  0  0  0  0  0  0  0  0  0  0  0
   -3.8499    0.9645   -0.9465 H   0  0  0  0  0  0  0  0  0  0  0  0
   -4.0721    0.8786    0.7724 H   0  0  0  0  0  0  0  0  0  0  0  0
   -1.4161    0.1602    0.0404 C   0  0  0  0  0  0  0  0  0  0  0  0
   -2.7508   -1.2880   -0.7334 H   0  0  0  0  0  0  0  0  0  0  0  0
   -2.6518   -1.3361    1.0247 H   0  0  0  0  0  0  0  0  0  0  0  0
   -0.1750   -0.6817   -0.0178 C   0  0  0  0  0  0  0  0  0  0  0  0
   -1.3034    0.8474    0.9163 H   0  0  0  0  0  0  0  0  0  0  0  0
   -1.4137    0.7724   -0.8266 H   0  0  0  0  0  0  0  0  0  0  0  0
   -0.2495   -1.0885    0.7844 H   0  0  0  0  0  0  0  0  0  0  0  0
    0.8525   -0.0005    0.1919 H   0  0  0  0  0  0  0  0  0  0  0  0
   -0.1638   -1.5445   -1.0322 H   0  0  0  0  0  0  0  0  0  0  0  0
  1  3  1  0  0  0  0
  1  2  1  0  0  0  0
  1  5  1  0  0  0  0
  2  8  1  0  0  0  0
  4  1  1  0  0  0  0
  6  2  1  0  0  0  0
  6 10  1  0  0  0  0
  7  2  1  0  0  0  0
  9  6  1  0  0  0  0
  9 13  1  0  0  0  0
  9 12  1  0  0  0  0
 11  6  1  0  0  0  0
 14  9  1  0  0  0  0
M  END
$$$$
