14
butane_opt
C  -3.929419   0.281955   0.062492
C  -2.687775  -0.638644  -0.009487
H  -4.801395  -0.250250   0.159364
H  -4.110655   0.895443  -0.769330
H  -3.883573   0.947923   0.942521
C  -1.388178   0.172490  -0.053079
H  -2.749659  -1.404306  -0.879309
H  -2.675362  -1.227010   0.861628
C  -0.195917  -0.688340   0.084707
H  -1.456670   0.742078   0.711811
H  -1.387559   0.890557  -0.995158
H  -0.250861  -1.177345   0.936166
H   0.784067  -0.034725   0.267235
H  -0.089880  -1.371046  -0.815897
