14
butane_opt
C  -3.959160   0.258429   0.008690
C  -2.705265  -0.612186   0.059566
H  -4.894188  -0.364779   0.063287
H  -3.889287   0.906886  -0.947665
H  -3.981542   0.899543   0.831839
C  -1.413379   0.196966   0.018325
H  -2.678800  -1.273058  -0.777234
H  -2.740203  -1.248219   0.991030
C  -0.142523  -0.702086   0.019973
H  -1.377041   0.863179   0.862345
H  -1.369194   0.858301  -0.899001
H  -0.121767  -1.202083   0.856883
H   0.754976  -0.113357   0.118046
H  -0.081719  -1.502477  -0.948411
