butane_opt
 OpenBabel08242015423D

 14 13  0  0  0  0  0  0  0  0999 V2000
   -3.9328    0.2566   -0.0236 C   0  0  0  0  0  0  0  0  0  0  0  0
   -2.6733   -0.6180    0.0780 C   0  0  0  0  0  0  0  0  0  0  0  0
   -4.8929   -0.3630   -0.0751 H   0  0  0  0  0  0  0  0  0  0  0  0
   -3.9706    0.9078   -0.8888 H   0  0  0  0  0  0  0  0  0  0  0  0
   -3.9999    0.9157    0.8300 H   0  0  0  0  0  0  0  0  0  0  0  0
   -1.4146    0.1974    0.0412 C   0  0  0  0  0  0  0  0  0  0  0  0
   -2.7140   -1.1705   -0.7134 H   0  0  0  0  0  0  0  0  0  0  0  0
   -2.7324   -1.3246    1.0688 H   0  0  0  0  0  0  0  0  0  0  0  0
   -0.1735   -0.6855    0.0067 C   0  0  0  0  0  0  0  0  0  0  0  0
   -1.3615    0.8975    0.9018 H   0  0  0  0  0  0  0  0  0  0  0  0
   -1.4339    0.7197   -0.7918 H   0  0  0  0  0  0  0  0  0  0  0  0
   -0.0599   -1.2400    0.8448 H   0  0  0  0  0  0  0  0  0  0  0  0
    0.6746   -0.1508   -0.0448 H   0  0  0  0  0  0  0  0  0  0  0  0
   -0.1903   -1.4868   -0.9404 H   0  0  0  0  0  0  0  0  0  0  0  0
  1  2  1  0  0  0  0
  1  5  1  0  0  0  0
  2  8  1  0  0  0  0
  3  1  1  0  0  0  0
  4  1  1  0  0  0  0
  6  2  1  0  0  0  0
  6 10  1  0  0  0  0
  7  2  1  0  0  0  0
  9  6  1  0  0  0  0
  9 12  1  0  0  0  0
 11  6  1  0  0  0  0
 13  9  1  0  0  0  0
 14  9  1  0  0  0  0
M  END
$$$$
