14
butane_opt
C  -3.958035   0.278067  -0.038528
C  -2.704051  -0.631244   0.108911
H  -4.827559  -0.313787  -0.080656
H  -3.911885   0.887513  -0.944091
H  -4.070983   0.933179   0.792162
C  -1.377024   0.187667   0.061842
H  -2.671993  -1.321179  -0.725516
H  -2.751263  -1.265589   1.025785
C  -0.177271  -0.688276  -0.020692
H  -1.242076   0.886053   0.897509
H  -1.499483   0.747359  -0.758920
H  -0.001664  -1.307031   0.830951
H   0.728373  -0.100979  -0.015912
H  -0.185778  -1.364000  -0.904536
