butane_opt
 OpenBabel08242015423D

 14 13  0  0  0  0  0  0  0  0999 V2000
   -3.9441    0.2793    0.0606 C   0  0  0  0  0  0  0  0  0  0  0  0
   -2.6979   -0.6472    0.0040 C   0  0  0  0  0  0  0  0  0  0  0  0
   -4.8095   -0.2232   -0.2225 H   0  0  0  0  0  0  0  0  0  0  0  0
   -4.0512    0.6697   -0.6957 H   0  0  0  0  0  0  0  0  0  0  0  0
   -4.1079    1.1431    0.9918 H   0  0  0  0  0  0  0  0  0  0  0  0
   -1.3915    0.1705   -0.0229 C   0  0  0  0  0  0  0  0  0  0  0  0
   -2.7807   -1.2999   -0.8406 H   0  0  0  0  0  0  0  0  0  0  0  0
   -2.5995   -1.2552    0.9092 H   0  0  0  0  0  0  0  0  0  0  0  0
   -0.1666   -0.6772    0.0698 C   0  0  0  0  0  0  0  0  0  0  0  0
   -1.4286    0.7555    0.7423 H   0  0  0  0  0  0  0  0  0  0  0  0
   -1.3200    0.9028   -0.9912 H   0  0  0  0  0  0  0  0  0  0  0  0
   -0.1133   -1.3848    1.0371 H   0  0  0  0  0  0  0  0  0  0  0  0
    0.7715   -0.0670   -0.0652 H   0  0  0  0  0  0  0  0  0  0  0  0
   -0.1853   -1.2236   -0.7474 H   0  0  0  0  0  0  0  0  0  0  0  0
  1  5  1  0  0  0  0
  2  1  1  0  0  0  0
  2  8  1  0  0  0  0
  3  1  1  0  0  0  0
  4  1  1  0  0  0  0
  6  2  1  0  0  0  0
  6  9  1  0  0  0  0
  6 10  1  0  0  0  0
  7  2  1  0  0  0  0
  9 12  1  0  0  0  0
 11  6  1  0  0  0  0
 13  9  1  0  0  0  0
 14  9  1  0  0  0  0
M  END
$$$$
