butane_opt
 OpenBabel08242015423D

 14 13  0  0  0  0  0  0  0  0999 V2000
   -3.9441    0.2526   -0.0382 C   0  0  0  0  0  0  0  0  0  0  0  0
   -2.7099   -0.5952    0.1095 C   0  0  0  0  0  0  0  0  0  0  0  0
   -4.9030   -0.3983   -0.2053 H   0  0  0  0  0  0  0  0  0  0  0  0
   -3.8431    0.8260   -0.8904 H   0  0  0  0  0  0  0  0  0  0  0  0
   -4.1199    0.9232    0.8287 H   0  0  0  0  0  0  0  0  0  0  0  0
   -1.4099    0.1867    0.0730 C   0  0  0  0  0  0  0  0  0  0  0  0
   -2.5832   -1.2035   -0.7136 H   0  0  0  0  0  0  0  0  0  0  0  0
   -2.7300   -1.2996    1.0650 H   0  0  0  0  0  0  0  0  0  0  0  0
   -0.1529   -0.7064   -0.0237 C   0  0  0  0  0  0  0  0  0  0  0  0
   -1.3605    0.9452    0.9773 H   0  0  0  0  0  0  0  0  0  0  0  0
   -1.3905    0.8464   -0.8506 H   0  0  0  0  0  0  0  0  0  0  0  0
    0.0503   -1.2779    0.8448 H   0  0  0  0  0  0  0  0  0  0  0  0
    0.7179   -0.1409   -0.1280 H   0  0  0  0  0  0  0  0  0  0  0  0
   -0.2425   -1.3704   -0.9324 H   0  0  0  0  0  0  0  0  0  0  0  0
  1  2  1  0  0  0  0
  1  5  1  0  0  0  0
  2  8  1  0  0  0  0
  3  1  1  0  0  0  0
  4  1  1  0  0  0  0
  6  2  1  0  0  0  0
  6 10  1  0  0  0  0
  7  2  1  0  0  0  0
  9  6  1  0  0  0  0
  9 12  1  0  0  0  0
 11  6  1  0  0  0  0
 13  9  1  0  0  0  0
 14  9  1  0  0  0  0
M  END
$$$$
