butane_opt
 OpenBabel08242015423D

 14 13  0  0  0  0  0  0  0  0999 V2000
   -3.9527    0.2766    0.0258 C   0  0  0  0  0  0  0  0  0  0  0  0
   -2.7021   -0.6462    0.0282 C   0  0  0  0  0  0  0  0  0  0  0  0
   -4.7821   -0.2294    0.0903 H   0  0  0  0  0  0  0  0  0  0  0  0
   -4.0378    0.8206   -0.7883 H   0  0  0  0  0  0  0  0  0  0  0  0
   -4.0262    1.0691    0.9381 H   0  0  0  0  0  0  0  0  0  0  0  0
   -1.4079    0.1604   -0.0326 C   0  0  0  0  0  0  0  0  0  0  0  0
   -2.7617   -1.2523   -0.7706 H   0  0  0  0  0  0  0  0  0  0  0  0
   -2.6266   -1.3531    0.9568 H   0  0  0  0  0  0  0  0  0  0  0  0
   -0.1596   -0.6728    0.0575 C   0  0  0  0  0  0  0  0  0  0  0  0
   -1.3879    0.8710    0.8151 H   0  0  0  0  0  0  0  0  0  0  0  0
   -1.3291    0.8483   -0.9838 H   0  0  0  0  0  0  0  0  0  0  0  0
   -0.1779   -1.1459    0.8856 H   0  0  0  0  0  0  0  0  0  0  0  0
    0.8005   -0.0421    0.1958 H   0  0  0  0  0  0  0  0  0  0  0  0
   -0.0459   -1.4680   -0.8504 H   0  0  0  0  0  0  0  0  0  0  0  0
  1  2  1  0  0  0  0
  1  3  1  0  0  0  0
  1  5  1  0  0  0  0
  2  8  1  0  0  0  0
  4  1  1  0  0  0  0
  6  2  1  0  0  0  0
  6  9  1  0  0  0  0
  6 10  1  0  0  0  0
  7  2  1  0  0  0  0
  9 13  1  0  0  0  0
  9 12  1  0  0  0  0
 11  6  1  0  0  0  0
 14  9  1  0  0  0  0
M  END
$$$$
