14
butane_opt
C  -3.965442   0.264715  -0.046933
C  -2.693560  -0.635801   0.134428
H  -4.862886  -0.315965  -0.158838
H  -3.843281   0.853538  -0.890860
H  -4.104962   0.941818   0.800142
C  -1.397711   0.197590   0.059342
H  -2.644213  -1.253834  -0.696937
H  -2.708057  -1.234810   1.042369
C  -0.155278  -0.697028  -0.024186
H  -1.266211   0.913480   0.915716
H  -1.452700   0.839207  -0.853996
H  -0.161618  -1.175273   0.784573
H   0.711933  -0.140792  -0.023193
H  -0.136071  -1.477309  -0.961862
