14
butane_opt
C  -3.964639   0.244814   0.001887
C  -2.698546  -0.606727   0.050799
H  -4.909380  -0.327193   0.191590
H  -3.973234   1.073606  -1.029063
H  -3.919030   0.732931   0.754783
C  -1.399069   0.223809   0.046547
H  -2.766806  -1.362722  -0.873839
H  -2.744429  -1.205749   0.901176
C  -0.144924  -0.713272   0.017482
H  -1.398748   0.932563   0.917077
H  -1.412348   0.786297  -0.809626
H  -0.064064  -1.304529   0.902193
H   0.750713  -0.146831  -0.066286
H  -0.097301  -1.429140  -0.876506
