butane_opt
 OpenBabel08242015423D

 14 13  0  0  0  0  0  0  0  0999 V2000
   -3.9496    0.2417   -0.0240 C   0  0  0  0  0  0  0  0  0  0  0  0
   -2.7184   -0.6021    0.0777 C   0  0  0  0  0  0  0  0  0  0  0  0
   -4.8529   -0.3528    0.1116 H   0  0  0  0  0  0  0  0  0  0  0  0
   -4.0109    0.9433   -0.9803 H   0  0  0  0  0  0  0  0  0  0  0  0
   -3.9930    0.7803    0.6763 H   0  0  0  0  0  0  0  0  0  0  0  0
   -1.4008    0.2280    0.0638 C   0  0  0  0  0  0  0  0  0  0  0  0
   -2.6685   -1.3241   -0.7577 H   0  0  0  0  0  0  0  0  0  0  0  0
   -2.7076   -1.1765    0.9185 H   0  0  0  0  0  0  0  0  0  0  0  0
   -0.1474   -0.7187   -0.0116 C   0  0  0  0  0  0  0  0  0  0  0  0
   -1.2725    0.9721    0.9693 H   0  0  0  0  0  0  0  0  0  0  0  0
   -1.4929    0.7790   -0.7502 H   0  0  0  0  0  0  0  0  0  0  0  0
    0.0194   -1.3665    0.9045 H   0  0  0  0  0  0  0  0  0  0  0  0
    0.6969   -0.1720   -0.0681 H   0  0  0  0  0  0  0  0  0  0  0  0
   -0.1336   -1.3518   -0.8542 H   0  0  0  0  0  0  0  0  0  0  0  0
  1  2  1  0  0  0  0
  1  3  1  0  0  0  0
  1  5  1  0  0  0  0
  2  8  1  0  0  0  0
  4  1  1  0  0  0  0
  6  2  1  0  0  0  0
  6 10  1  0  0  0  0
  7  2  1  0  0  0  0
  9  6  1  0  0  0  0
  9 12  1  0  0  0  0
 11  6  1  0  0  0  0
 13  9  1  0  0  0  0
 14  9  1  0  0  0  0
M  END
$$$$
