butane_opt
 OpenBabel08242015423D

 14 13  0  0  0  0  0  0  0  0999 V2000
   -3.9228    0.2708   -0.0393 C   0  0  0  0  0  0  0  0  0  0  0  0
   -2.7132   -0.6096    0.0749 C   0  0  0  0  0  0  0  0  0  0  0  0
   -4.8221   -0.3725    0.0495 H   0  0  0  0  0  0  0  0  0  0  0  0
   -3.8568    0.9159   -0.9269 H   0  0  0  0  0  0  0  0  0  0  0  0
   -3.9630    0.8677    0.7763 H   0  0  0  0  0  0  0  0  0  0  0  0
   -1.4065    0.1823    0.0788 C   0  0  0  0  0  0  0  0  0  0  0  0
   -2.6669   -1.2178   -0.7378 H   0  0  0  0  0  0  0  0  0  0  0  0
   -2.7535   -1.2653    1.0065 H   0  0  0  0  0  0  0  0  0  0  0  0
   -0.1638   -0.6956   -0.0155 C   0  0  0  0  0  0  0  0  0  0  0  0
   -1.4409    0.9730    0.9949 H   0  0  0  0  0  0  0  0  0  0  0  0
   -1.4210    0.6639   -0.7435 H   0  0  0  0  0  0  0  0  0  0  0  0
   -0.0642   -1.4191    0.9475 H   0  0  0  0  0  0  0  0  0  0  0  0
    0.7625   -0.0645   -0.2312 H   0  0  0  0  0  0  0  0  0  0  0  0
   -0.3292   -1.3224   -0.8816 H   0  0  0  0  0  0  0  0  0  0  0  0
  1  3  1  0  0  0  0
  1  2  1  0  0  0  0
  1  5  1  0  0  0  0
  2  6  1  0  0  0  0
  2  8  1  0  0  0  0
  4  1  1  0  0  0  0
  6 10  1  0  0  0  0
  7  2  1  0  0  0  0
  9  6  1  0  0  0  0
  9 12  1  0  0  0  0
 11  6  1  0  0  0  0
 13  9  1  0  0  0  0
 14  9  1  0  0  0  0
M  END
$$$$
