14
butane_opt
C  -3.956338   0.237830   0.083381
C  -2.708997  -0.590326  -0.043892
H  -4.880855  -0.353043   0.262478
H  -4.055581   0.960633  -0.880993
H  -3.826199   0.798768   0.905510
C  -1.418844   0.220648  -0.031009
H  -2.808624  -1.359654  -1.002482
H  -2.633825  -1.107164   0.752266
C  -0.130507  -0.722895   0.082215
H  -1.487902   0.818214   0.758319
H  -1.315094   0.854572  -0.913390
H  -0.134077  -1.425305   1.101635
H   0.797316  -0.102859   0.066086
H  -0.091947  -1.297807  -0.703732
