butane_opt
 OpenBabel08242015423D

 14 13  0  0  0  0  0  0  0  0999 V2000
   -3.9563    0.2378    0.0834 C   0  0  0  0  0  0  0  0  0  0  0  0
   -2.7090   -0.5903   -0.0439 C   0  0  0  0  0  0  0  0  0  0  0  0
   -4.8809   -0.3530    0.2625 H   0  0  0  0  0  0  0  0  0  0  0  0
   -4.0556    0.9606   -0.8810 H   0  0  0  0  0  0  0  0  0  0  0  0
   -3.8262    0.7988    0.9055 H   0  0  0  0  0  0  0  0  0  0  0  0
   -1.4188    0.2206   -0.0310 C   0  0  0  0  0  0  0  0  0  0  0  0
   -2.8086   -1.3597   -1.0025 H   0  0  0  0  0  0  0  0  0  0  0  0
   -2.6338   -1.1072    0.7523 H   0  0  0  0  0  0  0  0  0  0  0  0
   -0.1305   -0.7229    0.0822 C   0  0  0  0  0  0  0  0  0  0  0  0
   -1.4879    0.8182    0.7583 H   0  0  0  0  0  0  0  0  0  0  0  0
   -1.3151    0.8546   -0.9134 H   0  0  0  0  0  0  0  0  0  0  0  0
   -0.1341   -1.4253    1.1016 H   0  0  0  0  0  0  0  0  0  0  0  0
    0.7973   -0.1029    0.0661 H   0  0  0  0  0  0  0  0  0  0  0  0
   -0.0919   -1.2978   -0.7037 H   0  0  0  0  0  0  0  0  0  0  0  0
  1  3  1  0  0  0  0
  1  5  1  0  0  0  0
  2  6  1  0  0  0  0
  2  1  1  0  0  0  0
  2  8  1  0  0  0  0
  4  1  1  0  0  0  0
  6  9  1  0  0  0  0
  6 10  1  0  0  0  0
  7  2  1  0  0  0  0
  9 12  1  0  0  0  0
 11  6  1  0  0  0  0
 13  9  1  0  0  0  0
 14  9  1  0  0  0  0
M  END
$$$$
