14
butane_opt
C  -3.920540   0.266224   0.038849
C  -2.707741  -0.615936   0.026755
H  -4.855050  -0.351989  -0.112939
H  -3.904035   0.736667  -0.768336
H  -3.998744   1.040218   0.949995
C  -1.407925   0.189660  -0.017951
H  -2.791141  -1.255930  -0.790676
H  -2.674364  -1.240017   0.920037
C  -0.162587  -0.702615   0.051090
H  -1.433217   0.859733   0.832269
H  -1.422797   0.838836  -0.947593
H  -0.173349  -1.356739   0.962154
H   0.727620  -0.089360  -0.007483
H  -0.113976  -1.309481  -0.773209
