14
butane_opt
C  -3.961002   0.290385   0.048681
C  -2.671334  -0.644364   0.002511
H  -4.887033  -0.347441  -0.091013
H  -3.956276   0.847184  -0.827336
H  -4.016444   1.014161   0.954681
C  -1.402981   0.152083   0.008237
H  -2.681170  -1.331255  -0.846517
H  -2.694994  -1.195925   0.827021
C  -0.177280  -0.668749   0.055275
H  -1.419463   0.829988   0.853195
H  -1.315789   0.840515  -0.892523
H  -0.027926  -1.499401   1.027293
H   0.765502  -0.016602  -0.214122
H  -0.252540  -1.157856  -0.705378
