14
butane_opt
C  -3.950441   0.290512  -0.020023
C  -2.704807  -0.658456   0.111265
H  -4.873485  -0.288805  -0.187566
H  -3.886275   0.836975  -0.876444
H  -4.086762   0.976122   0.899519
C  -1.386433   0.184763   0.024113
H  -2.771755  -1.277270  -0.721395
H  -2.681931  -1.245370   0.969074
C  -0.168317  -0.686583  -0.001644
H  -1.331192   0.866115   0.849609
H  -1.426842   0.822067  -0.854814
H  -0.098884  -1.231795   0.864736
H   0.744433  -0.050138   0.058861
H  -0.106352  -1.450907  -0.936006
