14
butane_opt
C  -3.960884   0.285133   0.040577
C  -2.703108  -0.628343   0.005521
H  -4.846945  -0.265596   0.089159
H  -4.102018   0.893446  -0.858851
H  -4.019404   0.944570   0.899644
C  -1.386834   0.170384  -0.002273
H  -2.776054  -1.368555  -0.888091
H  -2.675674  -1.304766   0.874982
C  -0.145442  -0.695641   0.043819
H  -1.300264   0.854488   0.869621
H  -1.358523   0.778829  -0.874612
H  -0.280827  -1.336808   1.018845
H   0.814217  -0.013787  -0.026195
H  -0.117042  -1.216891  -0.714296
