14
butane_opt
C  -3.966599   0.262832   0.067132
C  -2.708199  -0.623589  -0.030172
H  -4.827570  -0.333875   0.257346
H  -4.041380   0.918634  -0.802520
H  -3.817528   0.831035   0.903908
C  -1.408423   0.215314  -0.039997
H  -2.736639  -1.415611  -0.956971
H  -2.646036  -1.197306   0.828405
C  -0.148428  -0.696359   0.073375
H  -1.453044   0.933134   0.829670
H  -1.323882   0.779178  -0.946414
H  -0.114268  -1.449035   1.075710
H   0.715024  -0.153823   0.103644
H  -0.012608  -1.269792  -0.690008
