14
butane_opt
C  -3.935041   0.257795   0.066690
C  -2.699857  -0.596140  -0.023916
H  -4.936574  -0.455805  -0.016472
H  -3.936832   0.824564  -0.808129
H  -3.859581   0.982016   0.948722
C  -1.417369   0.198248  -0.008184
H  -2.746893  -1.392524  -0.987313
H  -2.666657  -1.171354   0.857253
C  -0.162784  -0.707407   0.065349
H  -1.409810   0.847596   0.829199
H  -1.469043   0.867169  -0.888169
H  -0.040522  -1.572311   1.158548
H   0.744314  -0.084506  -0.192324
H  -0.121325  -1.149692  -0.634964
