butane_opt
 OpenBabel08242015423D

 14 13  0  0  0  0  0  0  0  0999 V2000
   -3.9556    0.2689    0.0475 C   0  0  0  0  0  0  0  0  0  0  0  0
   -2.7075   -0.6200    0.0141 C   0  0  0  0  0  0  0  0  0  0  0  0
   -4.8383   -0.3137    0.0451 H   0  0  0  0  0  0  0  0  0  0  0  0
   -4.0131    0.8723   -0.8549 H   0  0  0  0  0  0  0  0  0  0  0  0
   -3.9612    0.9910    0.9519 H   0  0  0  0  0  0  0  0  0  0  0  0
   -1.3947    0.1850   -0.0323 C   0  0  0  0  0  0  0  0  0  0  0  0
   -2.7449   -1.3152   -0.8184 H   0  0  0  0  0  0  0  0  0  0  0  0
   -2.7062   -1.2901    0.9373 H   0  0  0  0  0  0  0  0  0  0  0  0
   -0.1473   -0.6935    0.0580 C   0  0  0  0  0  0  0  0  0  0  0  0
   -1.3647    0.8377    0.8004 H   0  0  0  0  0  0  0  0  0  0  0  0
   -1.3984    0.8178   -0.9285 H   0  0  0  0  0  0  0  0  0  0  0  0
   -0.2830   -1.2620    0.9487 H   0  0  0  0  0  0  0  0  0  0  0  0
    0.7888   -0.0841    0.1527 H   0  0  0  0  0  0  0  0  0  0  0  0
   -0.0412   -1.4046   -0.8457 H   0  0  0  0  0  0  0  0  0  0  0  0
  1  5  1  0  0  0  0
  2  1  1  0  0  0  0
  2  8  1  0  0  0  0
  3  1  1  0  0  0  0
  4  1  1  0  0  0  0
  6  2  1  0  0  0  0
  6  9  1  0  0  0  0
  6 10  1  0  0  0  0
  7  2  1  0  0  0  0
  9 13  1  0  0  0  0
  9 12  1  0  0  0  0
 11  6  1  0  0  0  0
 14  9  1  0  0  0  0
M  END
$$$$
