14
butane_opt
C  -3.907410   0.255893   0.037617
C  -2.702870  -0.602461   0.014191
H  -4.919802  -0.418582   0.015977
H  -3.893035   0.716514  -0.762923
H  -3.971808   1.016565   0.977201
C  -1.412001   0.215563  -0.027260
H  -2.789516  -1.238847  -0.835799
H  -2.701833  -1.229378   0.882441
C  -0.170337  -0.716883   0.076451
H  -1.442466   0.836411   0.809129
H  -1.424199   0.846236  -0.960138
H  -0.080645  -1.316814   0.927411
H   0.689914  -0.208027  -0.029372
H  -0.161574  -1.315925  -0.773665
