butane_opt
 OpenBabel08242015423D

 14 13  0  0  0  0  0  0  0  0999 V2000
   -3.9350    0.2578    0.0667 C   0  0  0  0  0  0  0  0  0  0  0  0
   -2.6999   -0.5961   -0.0239 C   0  0  0  0  0  0  0  0  0  0  0  0
   -4.9366   -0.4558   -0.0165 H   0  0  0  0  0  0  0  0  0  0  0  0
   -3.9368    0.8246   -0.8081 H   0  0  0  0  0  0  0  0  0  0  0  0
   -3.8596    0.9820    0.9487 H   0  0  0  0  0  0  0  0  0  0  0  0
   -1.4174    0.1982   -0.0082 C   0  0  0  0  0  0  0  0  0  0  0  0
   -2.7469   -1.3925   -0.9873 H   0  0  0  0  0  0  0  0  0  0  0  0
   -2.6667   -1.1714    0.8573 H   0  0  0  0  0  0  0  0  0  0  0  0
   -0.1628   -0.7074    0.0653 C   0  0  0  0  0  0  0  0  0  0  0  0
   -1.4098    0.8476    0.8292 H   0  0  0  0  0  0  0  0  0  0  0  0
   -1.4690    0.8672   -0.8882 H   0  0  0  0  0  0  0  0  0  0  0  0
   -0.0405   -1.5723    1.1585 H   0  0  0  0  0  0  0  0  0  0  0  0
    0.7443   -0.0845   -0.1923 H   0  0  0  0  0  0  0  0  0  0  0  0
   -0.1213   -1.1497   -0.6350 H   0  0  0  0  0  0  0  0  0  0  0  0
  1  5  1  0  0  0  0
  2  6  1  0  0  0  0
  2  1  1  0  0  0  0
  2  8  1  0  0  0  0
  3  1  1  0  0  0  0
  4  1  1  0  0  0  0
  6  9  1  0  0  0  0
  6 10  1  0  0  0  0
  7  2  1  0  0  0  0
  9 12  1  0  0  0  0
 11  6  1  0  0  0  0
 13  9  1  0  0  0  0
 14  9  1  0  0  0  0
M  END
$$$$
