14
butane_opt
C  -3.962536   0.236753   0.052782
C  -2.701171  -0.605849  -0.015729
H  -4.804860  -0.269780   0.167695
H  -4.062205   0.921149  -0.814345
H  -3.890850   0.955323   0.951977
C  -1.410016   0.202632  -0.023913
H  -2.775689  -1.382495  -0.953067
H  -2.724044  -1.186975   0.824597
C  -0.139826  -0.709922   0.083801
H  -1.359757   0.837937   0.789465
H  -1.358211   0.946739  -0.949406
H  -0.052807  -1.338964   0.980878
H   0.739682  -0.150180   0.005383
H  -0.161285  -1.288039  -0.712766
