14
butane_opt
C  -3.932764   0.250155   0.025094
C  -2.693108  -0.601660   0.046626
H  -4.849361  -0.366645  -0.046111
H  -3.898667   0.820351  -0.850064
H  -4.015734   0.954025   0.913831
C  -1.420102   0.204459  -0.002947
H  -2.745036  -1.306729  -0.862222
H  -2.679864  -1.213669   0.915152
C  -0.170383  -0.704047   0.045740
H  -1.348882   0.864428   0.838880
H  -1.412531   0.851355  -0.913634
H  -0.101775  -1.361680   0.935043
H   0.743433  -0.104743  -0.027569
H  -0.113630  -1.399105  -0.830191
