14
butane_opt
C  -3.953857   0.285396   0.066710
C  -2.673169  -0.636547  -0.037255
H  -4.851025  -0.327654   0.262439
H  -4.081072   0.909483  -0.860820
H  -3.767581   0.967756   0.952841
C  -1.419264   0.156376  -0.044162
H  -2.666421  -1.328910  -0.880386
H  -2.639408  -1.204334   0.826744
C  -0.178706  -0.671290   0.092720
H  -1.365981   0.787713   0.801258
H  -1.366406   0.748209  -0.947986
H  -0.246871  -1.306279   0.996260
H   0.777690  -0.019499   0.084952
H  -0.132317  -1.284268  -0.722457
