14
butane_opt
C  -3.962292   0.273701   0.004978
C  -2.682547  -0.650137   0.062700
H  -4.834827  -0.281739  -0.018849
H  -4.051968   0.915026  -0.931266
H  -4.008564   0.970132   0.845236
C  -1.395421   0.186392   0.033658
H  -2.694407  -1.276180  -0.736230
H  -2.759004  -1.268755   0.925038
C  -0.149713  -0.677559   0.015934
H  -1.356218   0.764661   0.820766
H  -1.447681   0.896019  -0.903636
H  -0.191675  -1.201506   0.869321
H   0.780283  -0.108285   0.106780
H  -0.179656  -1.469571  -0.951270
