14
butane_opt
C  -3.955819   0.245938  -0.020342
C  -2.717985  -0.603760   0.086037
H  -4.879666  -0.361966  -0.154762
H  -3.803824   0.820462  -0.900564
H  -4.132947   0.995195   0.887290
C  -1.410361   0.206520   0.063213
H  -2.675480  -1.238793  -0.693047
H  -2.820766  -1.276208   0.996717
C  -0.113291  -0.702698  -0.004015
H  -1.429546   0.910889   0.899477
H  -1.449001   0.865267  -0.887044
H  -0.017426  -1.370620   0.866605
H   0.793209  -0.136897  -0.154556
H  -0.234111  -1.434775  -0.904740
