14
butane_opt
C  -3.937326   0.287891   0.057145
C  -2.683801  -0.622438   0.016074
H  -4.868990  -0.374543   0.048325
H  -4.030731   0.783750  -0.724568
H  -3.941459   1.025750   0.972696
C  -1.402420   0.133488  -0.060920
H  -2.728452  -1.352096  -0.871445
H  -2.594345  -1.181130   0.847689
C  -0.182598  -0.664351   0.080040
H  -1.426428   0.773427   0.727531
H  -1.395737   0.914854  -1.046360
H  -0.312403  -1.202550   0.969754
H   0.747936  -0.048955   0.206864
H  -0.008043  -1.436530  -0.802925
