butane_opt
 OpenBabel08242015423D

 14 13  0  0  0  0  0  0  0  0999 V2000
   -3.9373    0.2879    0.0571 C   0  0  0  0  0  0  0  0  0  0  0  0
   -2.6838   -0.6224    0.0161 C   0  0  0  0  0  0  0  0  0  0  0  0
   -4.8690   -0.3745    0.0483 H   0  0  0  0  0  0  0  0  0  0  0  0
   -4.0307    0.7837   -0.7246 H   0  0  0  0  0  0  0  0  0  0  0  0
   -3.9415    1.0257    0.9727 H   0  0  0  0  0  0  0  0  0  0  0  0
   -1.4024    0.1335   -0.0609 C   0  0  0  0  0  0  0  0  0  0  0  0
   -2.7285   -1.3521   -0.8714 H   0  0  0  0  0  0  0  0  0  0  0  0
   -2.5943   -1.1811    0.8477 H   0  0  0  0  0  0  0  0  0  0  0  0
   -0.1826   -0.6644    0.0800 C   0  0  0  0  0  0  0  0  0  0  0  0
   -1.4264    0.7734    0.7275 H   0  0  0  0  0  0  0  0  0  0  0  0
   -1.3957    0.9149   -1.0464 H   0  0  0  0  0  0  0  0  0  0  0  0
   -0.3124   -1.2026    0.9698 H   0  0  0  0  0  0  0  0  0  0  0  0
    0.7479   -0.0490    0.2069 H   0  0  0  0  0  0  0  0  0  0  0  0
   -0.0080   -1.4365   -0.8029 H   0  0  0  0  0  0  0  0  0  0  0  0
  1  5  1  0  0  0  0
  2  1  1  0  0  0  0
  2  8  1  0  0  0  0
  3  1  1  0  0  0  0
  4  1  1  0  0  0  0
  6  2  1  0  0  0  0
  6  9  1  0  0  0  0
  6 10  1  0  0  0  0
  7  2  1  0  0  0  0
  9 13  1  0  0  0  0
  9 12  1  0  0  0  0
 11  6  1  0  0  0  0
 14  9  1  0  0  0  0
M  END
$$$$
