butane_opt
 OpenBabel08242015423D

 14 13  0  0  0  0  0  0  0  0999 V2000
   -3.9560    0.2931    0.0145 C   0  0  0  0  0  0  0  0  0  0  0  0
   -2.6876   -0.6408    0.0324 C   0  0  0  0  0  0  0  0  0  0  0  0
   -4.8554   -0.3261    0.2370 H   0  0  0  0  0  0  0  0  0  0  0  0
   -4.0038    1.0512   -0.9721 H   0  0  0  0  0  0  0  0  0  0  0  0
   -3.9006    0.8018    0.7373 H   0  0  0  0  0  0  0  0  0  0  0  0
   -1.3983    0.1594    0.0168 C   0  0  0  0  0  0  0  0  0  0  0  0
   -2.7239   -1.2919   -0.8326 H   0  0  0  0  0  0  0  0  0  0  0  0
   -2.7121   -1.2394    0.8843 H   0  0  0  0  0  0  0  0  0  0  0  0
   -0.1658   -0.6774    0.0296 C   0  0  0  0  0  0  0  0  0  0  0  0
   -1.3467    0.8902    0.9531 H   0  0  0  0  0  0  0  0  0  0  0  0
   -1.4273    0.6950   -0.8182 H   0  0  0  0  0  0  0  0  0  0  0  0
   -0.1575   -1.2606    0.9383 H   0  0  0  0  0  0  0  0  0  0  0  0
    0.8065   -0.0089    0.0571 H   0  0  0  0  0  0  0  0  0  0  0  0
   -0.2311   -1.3797   -0.8724 H   0  0  0  0  0  0  0  0  0  0  0  0
  1  2  1  0  0  0  0
  1  3  1  0  0  0  0
  1  5  1  0  0  0  0
  2  8  1  0  0  0  0
  4  1  1  0  0  0  0
  6  9  1  0  0  0  0
  6  2  1  0  0  0  0
  6 10  1  0  0  0  0
  7  2  1  0  0  0  0
  9 13  1  0  0  0  0
  9 12  1  0  0  0  0
 11  6  1  0  0  0  0
 14  9  1  0  0  0  0
M  END
$$$$
