14
butane_opt
C  -3.965893   0.248586   0.068592
C  -2.692736  -0.594036  -0.038079
H  -4.980048  -0.399492   0.241436
H  -4.126450   0.933438  -0.883030
H  -3.848369   0.876667   0.936190
C  -1.402310   0.191838  -0.041905
H  -2.810981  -1.269697  -0.914281
H  -2.705359  -1.229066   0.837358
C  -0.137583  -0.702595   0.091238
H  -1.396801   0.915442   0.823571
H  -1.374620   0.844675  -0.915898
H  -0.058527  -1.354232   1.017525
H   0.753506  -0.152371   0.083439
H  -0.078413  -1.375298  -0.744893
