butane_opt
 OpenBabel08242015423D

 14 13  0  0  0  0  0  0  0  0999 V2000
   -3.9270    0.2533   -0.0138 C   0  0  0  0  0  0  0  0  0  0  0  0
   -2.7113   -0.5960    0.0504 C   0  0  0  0  0  0  0  0  0  0  0  0
   -4.8572   -0.3586    0.2965 H   0  0  0  0  0  0  0  0  0  0  0  0
   -3.9539    1.0698   -1.0363 H   0  0  0  0  0  0  0  0  0  0  0  0
   -3.8619    0.6461    0.6477 H   0  0  0  0  0  0  0  0  0  0  0  0
   -1.4204    0.2090    0.0591 C   0  0  0  0  0  0  0  0  0  0  0  0
   -2.6849   -1.2136   -0.7742 H   0  0  0  0  0  0  0  0  0  0  0  0
   -2.7425   -1.2837    0.9713 H   0  0  0  0  0  0  0  0  0  0  0  0
   -0.1718   -0.7074   -0.0088 C   0  0  0  0  0  0  0  0  0  0  0  0
   -1.2777    0.9472    1.0015 H   0  0  0  0  0  0  0  0  0  0  0  0
   -1.4582    0.6976   -0.7561 H   0  0  0  0  0  0  0  0  0  0  0  0
   -0.1184   -1.2356    0.8246 H   0  0  0  0  0  0  0  0  0  0  0  0
    0.7087   -0.1444    0.0791 H   0  0  0  0  0  0  0  0  0  0  0  0
   -0.0189   -1.4972   -0.8846 H   0  0  0  0  0  0  0  0  0  0  0  0
  1  2  1  0  0  0  0
  1  3  1  0  0  0  0
  1  5  1  0  0  0  0
  2  6  1  0  0  0  0
  2  8  1  0  0  0  0
  4  1  1  0  0  0  0
  6 10  1  0  0  0  0
  7  2  1  0  0  0  0
  9  6  1  0  0  0  0
  9 13  1  0  0  0  0
  9 12  1  0  0  0  0
 11  6  1  0  0  0  0
 14  9  1  0  0  0  0
M  END
$$$$
