14
butane_opt
C  -3.926953   0.253260  -0.013754
C  -2.711278  -0.595980   0.050413
H  -4.857244  -0.358601   0.296541
H  -3.953915   1.069753  -1.036308
H  -3.861943   0.646064   0.647711
C  -1.420443   0.209049   0.059122
H  -2.684904  -1.213587  -0.774179
H  -2.742505  -1.283663   0.971302
C  -0.171795  -0.707406  -0.008848
H  -1.277667   0.947205   1.001486
H  -1.458188   0.697592  -0.756132
H  -0.118392  -1.235611   0.824603
H   0.708728  -0.144407   0.079122
H  -0.018878  -1.497169  -0.884642
