butane_opt
 OpenBabel08242015423D

 14 13  0  0  0  0  0  0  0  0999 V2000
   -3.9436    0.2857    0.0666 C   0  0  0  0  0  0  0  0  0  0  0  0
   -2.6842   -0.6364   -0.0544 C   0  0  0  0  0  0  0  0  0  0  0  0
   -4.8780   -0.3356    0.3195 H   0  0  0  0  0  0  0  0  0  0  0  0
   -4.1527    1.0126   -0.8684 H   0  0  0  0  0  0  0  0  0  0  0  0
   -3.8186    0.8097    0.8958 H   0  0  0  0  0  0  0  0  0  0  0  0
   -1.4053    0.1702   -0.0179 C   0  0  0  0  0  0  0  0  0  0  0  0
   -2.7271   -1.3239   -0.8996 H   0  0  0  0  0  0  0  0  0  0  0  0
   -2.6189   -1.3215    0.8218 H   0  0  0  0  0  0  0  0  0  0  0  0
   -0.1742   -0.6700    0.0848 C   0  0  0  0  0  0  0  0  0  0  0  0
   -1.5139    0.8788    0.8349 H   0  0  0  0  0  0  0  0  0  0  0  0
   -1.2899    0.7886   -0.9124 H   0  0  0  0  0  0  0  0  0  0  0  0
   -0.1991   -1.3478    1.0515 H   0  0  0  0  0  0  0  0  0  0  0  0
    0.7484   -0.0655    0.0127 H   0  0  0  0  0  0  0  0  0  0  0  0
   -0.0989   -1.3492   -0.7898 H   0  0  0  0  0  0  0  0  0  0  0  0
  1  3  1  0  0  0  0
  1  5  1  0  0  0  0
  2  6  1  0  0  0  0
  2  1  1  0  0  0  0
  2  8  1  0  0  0  0
  4  1  1  0  0  0  0
  6  9  1  0  0  0  0
  6 10  1  0  0  0  0
  7  2  1  0  0  0  0
  9 12  1  0  0  0  0
 11  6  1  0  0  0  0
 13  9  1  0  0  0  0
 14  9  1  0  0  0  0
M  END
$$$$
