14
butane_opt
C  -3.925153   0.245166   0.003290
C  -2.689829  -0.607130   0.070657
H  -4.890936  -0.361458   0.018080
H  -3.998032   0.869615  -0.936404
H  -3.994390   0.947846   0.866083
C  -1.411248   0.201146   0.021421
H  -2.663148  -1.243503  -0.760796
H  -2.691794  -1.215961   0.997779
C  -0.178989  -0.702004   0.012315
H  -1.395908   0.791596   0.818592
H  -1.375448   0.896062  -0.925792
H  -0.211978  -1.156443   0.794432
H   0.682430  -0.148855   0.171823
H   0.002863  -1.519300  -0.917544
