butane_opt
 OpenBabel08242015423D

 14 13  0  0  0  0  0  0  0  0999 V2000
   -3.9338    0.2920   -0.0130 C   0  0  0  0  0  0  0  0  0  0  0  0
   -2.6799   -0.6443    0.0686 C   0  0  0  0  0  0  0  0  0  0  0  0
   -4.8301   -0.3468   -0.0669 H   0  0  0  0  0  0  0  0  0  0  0  0
   -3.8932    0.9436   -0.9110 H   0  0  0  0  0  0  0  0  0  0  0  0
   -4.0791    0.8997    0.7855 H   0  0  0  0  0  0  0  0  0  0  0  0
   -1.4084    0.1659    0.0559 C   0  0  0  0  0  0  0  0  0  0  0  0
   -2.6378   -1.2867   -0.7511 H   0  0  0  0  0  0  0  0  0  0  0  0
   -2.6779   -1.3742    1.0396 H   0  0  0  0  0  0  0  0  0  0  0  0
   -0.1829   -0.6691   -0.0102 C   0  0  0  0  0  0  0  0  0  0  0  0
   -1.3490    0.9243    0.9750 H   0  0  0  0  0  0  0  0  0  0  0  0
   -1.4571    0.7087   -0.8117 H   0  0  0  0  0  0  0  0  0  0  0  0
   -0.0981   -1.2887    0.9009 H   0  0  0  0  0  0  0  0  0  0  0  0
    0.7189   -0.0632   -0.0729 H   0  0  0  0  0  0  0  0  0  0  0  0
   -0.2678   -1.3131   -0.8622 H   0  0  0  0  0  0  0  0  0  0  0  0
  1  2  1  0  0  0  0
  1  5  1  0  0  0  0
  2  8  1  0  0  0  0
  3  1  1  0  0  0  0
  4  1  1  0  0  0  0
  6  2  1  0  0  0  0
  6 10  1  0  0  0  0
  7  2  1  0  0  0  0
  9  6  1  0  0  0  0
  9 12  1  0  0  0  0
 11  6  1  0  0  0  0
 13  9  1  0  0  0  0
 14  9  1  0  0  0  0
M  END
$$$$
