14
butane_opt
C  -3.963777   0.253430   0.011420
C  -2.721106  -0.584238   0.043444
H  -4.878742  -0.403271   0.199011
H  -4.052848   1.060487  -0.997418
H  -3.861949   0.713999   0.726801
C  -1.388910   0.203521   0.036314
H  -2.683890  -1.346314  -0.870645
H  -2.770969  -1.242763   0.959938
C  -0.134822  -0.710046   0.011555
H  -1.370211   0.843973   0.912423
H  -1.346851   0.841640  -0.848025
H  -0.141076  -1.223679   0.863211
H   0.701781  -0.191961   0.132261
H  -0.097283  -1.479684  -0.902733
