14
butane_opt
C  -3.935332   0.259290  -0.017545
C  -2.690318  -0.605643   0.084464
H  -4.845069  -0.349752  -0.078932
H  -3.932388   0.770904  -0.823891
H  -3.959861   0.997879   0.871138
C  -1.423345   0.181922   0.026957
H  -2.711829  -1.233137  -0.790627
H  -2.783861  -1.253704   1.002372
C  -0.141268  -0.690988   0.001773
H  -1.424103   0.855018   0.879236
H  -1.467755   0.776562  -0.830749
H  -0.128724  -1.300641   0.908488
H   0.746946  -0.138772  -0.001157
H  -0.227536  -1.337958  -0.830262
