14
butane_opt
C  -3.937041   0.238850  -0.027389
C  -2.698036  -0.574555   0.067516
H  -4.830237  -0.309322  -0.008209
H  -3.944390   0.874197  -0.910868
H  -3.878627   0.944477   0.845818
C  -1.416851   0.189955   0.064541
H  -2.653405  -1.286688  -0.750863
H  -2.815134  -1.291637   1.016860
C  -0.159860  -0.711330  -0.005471
H  -1.397934   0.926744   0.949614
H  -1.399285   0.740158  -0.784928
H  -0.097631  -1.417185   0.908245
H   0.784706  -0.066427  -0.180146
H  -0.249196  -1.286644  -0.831816
