butane_opt
 OpenBabel08242015423D

 14 13  0  0  0  0  0  0  0  0999 V2000
   -3.9619    0.2487    0.0424 C   0  0  0  0  0  0  0  0  0  0  0  0
   -2.7019   -0.5982   -0.0042 C   0  0  0  0  0  0  0  0  0  0  0  0
   -4.8100   -0.3116   -0.0267 H   0  0  0  0  0  0  0  0  0  0  0  0
   -4.0158    0.7248   -0.7410 H   0  0  0  0  0  0  0  0  0  0  0  0
   -3.9482    1.0672    1.0625 H   0  0  0  0  0  0  0  0  0  0  0  0
   -1.4159    0.1845   -0.0086 C   0  0  0  0  0  0  0  0  0  0  0  0
   -2.7721   -1.3595   -0.9128 H   0  0  0  0  0  0  0  0  0  0  0  0
   -2.6843   -1.1596    0.7861 H   0  0  0  0  0  0  0  0  0  0  0  0
   -0.1375   -0.7045    0.0780 C   0  0  0  0  0  0  0  0  0  0  0  0
   -1.3875    0.8220    0.8031 H   0  0  0  0  0  0  0  0  0  0  0  0
   -1.3417    0.9160   -0.9812 H   0  0  0  0  0  0  0  0  0  0  0  0
   -0.0543   -1.4708    1.0885 H   0  0  0  0  0  0  0  0  0  0  0  0
    0.7780   -0.1217   -0.2501 H   0  0  0  0  0  0  0  0  0  0  0  0
   -0.1783   -1.1367   -0.6510 H   0  0  0  0  0  0  0  0  0  0  0  0
  1  5  1  0  0  0  0
  2  1  1  0  0  0  0
  2  8  1  0  0  0  0
  3  1  1  0  0  0  0
  4  1  1  0  0  0  0
  6  2  1  0  0  0  0
  6  9  1  0  0  0  0
  6 10  1  0  0  0  0
  7  2  1  0  0  0  0
  9 12  1  0  0  0  0
 11  6  1  0  0  0  0
 13  9  1  0  0  0  0
 14  9  1  0  0  0  0
M  END
$$$$
