butane_opt
 OpenBabel08242015423D

 14 13  0  0  0  0  0  0  0  0999 V2000
   -3.9401    0.2962   -0.0254 C   0  0  0  0  0  0  0  0  0  0  0  0
   -2.6883   -0.6515    0.0736 C   0  0  0  0  0  0  0  0  0  0  0  0
   -4.8437   -0.3073   -0.0613 H   0  0  0  0  0  0  0  0  0  0  0  0
   -3.8949    0.9084   -0.8926 H   0  0  0  0  0  0  0  0  0  0  0  0
   -4.0153    0.9041    0.7909 H   0  0  0  0  0  0  0  0  0  0  0  0
   -1.3963    0.1655    0.0848 C   0  0  0  0  0  0  0  0  0  0  0  0
   -2.5985   -1.3134   -0.7450 H   0  0  0  0  0  0  0  0  0  0  0  0
   -2.8139   -1.2104    0.9443 H   0  0  0  0  0  0  0  0  0  0  0  0
   -0.1872   -0.6773   -0.0097 C   0  0  0  0  0  0  0  0  0  0  0  0
   -1.3302    0.8513    0.9568 H   0  0  0  0  0  0  0  0  0  0  0  0
   -1.3984    0.7656   -0.8357 H   0  0  0  0  0  0  0  0  0  0  0  0
   -0.0363   -1.3475    0.9231 H   0  0  0  0  0  0  0  0  0  0  0  0
    0.7045   -0.0573   -0.2905 H   0  0  0  0  0  0  0  0  0  0  0  0
   -0.2727   -1.2530   -0.8226 H   0  0  0  0  0  0  0  0  0  0  0  0
  1  2  1  0  0  0  0
  1  5  1  0  0  0  0
  2  6  1  0  0  0  0
  2  8  1  0  0  0  0
  3  1  1  0  0  0  0
  4  1  1  0  0  0  0
  6 10  1  0  0  0  0
  7  2  1  0  0  0  0
  9  6  1  0  0  0  0
  9 12  1  0  0  0  0
 11  6  1  0  0  0  0
 13  9  1  0  0  0  0
 14  9  1  0  0  0  0
M  END
$$$$
