butane_opt
 OpenBabel08242015423D

 14 13  0  0  0  0  0  0  0  0999 V2000
   -3.9347    0.2782    0.0823 C   0  0  0  0  0  0  0  0  0  0  0  0
   -2.7023   -0.6259   -0.0392 C   0  0  0  0  0  0  0  0  0  0  0  0
   -4.8703   -0.2760    0.2423 H   0  0  0  0  0  0  0  0  0  0  0  0
   -4.0421    0.9346   -0.8360 H   0  0  0  0  0  0  0  0  0  0  0  0
   -3.8477    0.9083    0.9265 H   0  0  0  0  0  0  0  0  0  0  0  0
   -1.4000    0.1709   -0.0663 C   0  0  0  0  0  0  0  0  0  0  0  0
   -2.7361   -1.4045   -0.9667 H   0  0  0  0  0  0  0  0  0  0  0  0
   -2.5968   -1.2309    0.8550 H   0  0  0  0  0  0  0  0  0  0  0  0
   -0.1753   -0.6754    0.0902 C   0  0  0  0  0  0  0  0  0  0  0  0
   -1.4420    0.8569    0.8344 H   0  0  0  0  0  0  0  0  0  0  0  0
   -1.2637    0.7344   -0.9116 H   0  0  0  0  0  0  0  0  0  0  0  0
   -0.2227   -1.3659    1.0631 H   0  0  0  0  0  0  0  0  0  0  0  0
    0.6913   -0.1214    0.1242 H   0  0  0  0  0  0  0  0  0  0  0  0
   -0.1456   -1.2748   -0.6971 H   0  0  0  0  0  0  0  0  0  0  0  0
  1  3  1  0  0  0  0
  1  5  1  0  0  0  0
  2  1  1  0  0  0  0
  2  8  1  0  0  0  0
  4  1  1  0  0  0  0
  6  2  1  0  0  0  0
  6  9  1  0  0  0  0
  6 10  1  0  0  0  0
  7  2  1  0  0  0  0
  9 13  1  0  0  0  0
  9 12  1  0  0  0  0
 11  6  1  0  0  0  0
 14  9  1  0  0  0  0
M  END
$$$$
