butane_opt
 OpenBabel08242015423D

 14 13  0  0  0  0  0  0  0  0999 V2000
   -3.9370    0.2389   -0.0274 C   0  0  0  0  0  0  0  0  0  0  0  0
   -2.6980   -0.5746    0.0675 C   0  0  0  0  0  0  0  0  0  0  0  0
   -4.8302   -0.3093   -0.0082 H   0  0  0  0  0  0  0  0  0  0  0  0
   -3.9444    0.8742   -0.9109 H   0  0  0  0  0  0  0  0  0  0  0  0
   -3.8786    0.9445    0.8458 H   0  0  0  0  0  0  0  0  0  0  0  0
   -1.4169    0.1900    0.0645 C   0  0  0  0  0  0  0  0  0  0  0  0
   -2.6534   -1.2867   -0.7509 H   0  0  0  0  0  0  0  0  0  0  0  0
   -2.8151   -1.2916    1.0169 H   0  0  0  0  0  0  0  0  0  0  0  0
   -0.1599   -0.7113   -0.0055 C   0  0  0  0  0  0  0  0  0  0  0  0
   -1.3979    0.9267    0.9496 H   0  0  0  0  0  0  0  0  0  0  0  0
   -1.3993    0.7402   -0.7849 H   0  0  0  0  0  0  0  0  0  0  0  0
   -0.0976   -1.4172    0.9082 H   0  0  0  0  0  0  0  0  0  0  0  0
    0.7847   -0.0664   -0.1801 H   0  0  0  0  0  0  0  0  0  0  0  0
   -0.2492   -1.2866   -0.8318 H   0  0  0  0  0  0  0  0  0  0  0  0
  1  3  1  0  0  0  0
  1  2  1  0  0  0  0
  1  5  1  0  0  0  0
  2  8  1  0  0  0  0
  4  1  1  0  0  0  0
  6  2  1  0  0  0  0
  6 10  1  0  0  0  0
  7  2  1  0  0  0  0
  9  6  1  0  0  0  0
  9 12  1  0  0  0  0
 11  6  1  0  0  0  0
 13  9  1  0  0  0  0
 14  9  1  0  0  0  0
M  END
$$$$
