14
butane_opt
C  -3.933804   0.291962  -0.013001
C  -2.679872  -0.644350   0.068585
H  -4.830089  -0.346845  -0.066871
H  -3.893211   0.943588  -0.910988
H  -4.079075   0.899680   0.785533
C  -1.408414   0.165855   0.055919
H  -2.637846  -1.286699  -0.751143
H  -2.677862  -1.374162   1.039649
C  -0.182923  -0.669084  -0.010210
H  -1.349020   0.924282   0.974980
H  -1.457061   0.708699  -0.811651
H  -0.098071  -1.288723   0.900889
H   0.718950  -0.063244  -0.072941
H  -0.267836  -1.313085  -0.862185
