14
butane_opt
C  -3.941298   0.283193  -0.027507
C  -2.678996  -0.625539   0.104758
H  -4.892045  -0.358667   0.057275
H  -3.834196   1.005090  -1.021763
H  -4.055682   0.848388   0.761363
C  -1.411433   0.161952   0.053067
H  -2.738053  -1.265042  -0.698783
H  -2.691211  -1.276381   1.033823
C  -0.176757  -0.683894  -0.016895
H  -1.373130   0.799164   0.845396
H  -1.412280   0.775546  -0.810353
H  -0.204926  -1.070033   0.703495
H   0.773324  -0.000161   0.199564
H  -0.102821  -1.555423  -1.023146
