14
butane_opt
C  -3.934746   0.278212   0.082311
C  -2.702282  -0.625924  -0.039232
H  -4.870312  -0.275997   0.242333
H  -4.042054   0.934629  -0.835990
H  -3.847656   0.908299   0.926486
C  -1.399977   0.170866  -0.066260
H  -2.736096  -1.404537  -0.966656
H  -2.596750  -1.230871   0.855005
C  -0.175291  -0.675427   0.090242
H  -1.441962   0.856906   0.834430
H  -1.263715   0.734360  -0.911629
H  -0.222670  -1.365876   1.063145
H   0.691336  -0.121425   0.124216
H  -0.145576  -1.274779  -0.697090
