14
butane_opt
C  -3.949748   0.244346   0.040817
C  -2.724197  -0.604168   0.025456
H  -4.858112  -0.300447   0.021471
H  -3.970393   0.770888  -0.793935
H  -3.971708   0.979837   0.964197
C  -1.406092   0.214309  -0.039163
H  -2.804036  -1.255601  -0.817940
H  -2.693631  -1.187601   0.929751
C  -0.119899  -0.720984   0.067093
H  -1.414093   0.821143   0.758465
H  -1.339265   0.918959  -0.988925
H  -0.180765  -1.222830   0.887036
H   0.746844  -0.146454   0.183387
H  -0.118058  -1.472735  -0.837043
