butane_opt
 OpenBabel08242015423D

 14 13  0  0  0  0  0  0  0  0999 V2000
   -3.9595    0.2784   -0.0284 C   0  0  0  0  0  0  0  0  0  0  0  0
   -2.6835   -0.6434    0.0612 C   0  0  0  0  0  0  0  0  0  0  0  0
   -4.7645   -0.2404    0.0567 H   0  0  0  0  0  0  0  0  0  0  0  0
   -3.9824    0.9118   -0.8814 H   0  0  0  0  0  0  0  0  0  0  0  0
   -3.9969    0.9228    0.8194 H   0  0  0  0  0  0  0  0  0  0  0  0
   -1.4086    0.1693    0.0695 C   0  0  0  0  0  0  0  0  0  0  0  0
   -2.6627   -1.3088   -0.7759 H   0  0  0  0  0  0  0  0  0  0  0  0
   -2.8255   -1.3014    1.0002 H   0  0  0  0  0  0  0  0  0  0  0  0
   -0.1588   -0.6723   -0.0128 C   0  0  0  0  0  0  0  0  0  0  0  0
   -1.3685    0.9251    0.9757 H   0  0  0  0  0  0  0  0  0  0  0  0
   -1.4221    0.7323   -0.7968 H   0  0  0  0  0  0  0  0  0  0  0  0
   -0.0499   -1.3916    0.9658 H   0  0  0  0  0  0  0  0  0  0  0  0
    0.7450   -0.0532   -0.1562 H   0  0  0  0  0  0  0  0  0  0  0  0
   -0.1977   -1.2326   -0.8270 H   0  0  0  0  0  0  0  0  0  0  0  0
  1  3  1  0  0  0  0
  1  2  1  0  0  0  0
  1  5  1  0  0  0  0
  2  6  1  0  0  0  0
  2  8  1  0  0  0  0
  4  1  1  0  0  0  0
  6 10  1  0  0  0  0
  7  2  1  0  0  0  0
  9  6  1  0  0  0  0
  9 12  1  0  0  0  0
 11  6  1  0  0  0  0
 13  9  1  0  0  0  0
 14  9  1  0  0  0  0
M  END
$$$$
