14
butane_opt
C  -3.948998   0.270399   0.029424
C  -2.706991  -0.625204   0.019703
H  -4.835964  -0.331237  -0.034475
H  -3.958759   0.705126  -0.772867
H  -3.984240   1.064916   0.961322
C  -1.404116   0.193341  -0.003703
H  -2.740237  -1.282197  -0.828307
H  -2.729059  -1.268170   0.943585
C  -0.149694  -0.697393   0.045524
H  -1.407995   0.850578   0.826008
H  -1.414987   0.865460  -0.926222
H  -0.106224  -1.403880   0.986151
H   0.765966  -0.083008  -0.041995
H  -0.102643  -1.279726  -0.738213
