14
butane_opt
C  -3.953533   0.257507   0.045309
C  -2.703771  -0.623783  -0.011347
H  -4.818410  -0.266182   0.165284
H  -4.041147   0.886765  -0.860076
H  -3.869500   0.871079   0.895924
C  -1.402593   0.209421  -0.014301
H  -2.788986  -1.266595  -0.813720
H  -2.762845  -1.247256   0.901701
C  -0.145211  -0.708519   0.050792
H  -1.462341   0.932169   0.846715
H  -1.322576   0.834992  -0.871544
H  -0.129591  -1.355641   0.957504
H   0.768307  -0.133942   0.096363
H  -0.136292  -1.337140  -0.726785
