14
butane_opt
C  -3.941052   0.241874   0.036500
C  -2.715413  -0.597720   0.043101
H  -4.864879  -0.404570  -0.142459
H  -3.914616   0.688472  -0.740541
H  -3.995072   1.137588   1.058189
C  -1.410166   0.214658  -0.030087
H  -2.760240  -1.315467  -0.861167
H  -2.639394  -1.158530   0.860765
C  -0.161692  -0.712407   0.064270
H  -1.360418   0.774545   0.747460
H  -1.409616   0.914026  -1.019396
H  -0.114633  -1.373922   0.973127
H   0.731464  -0.163568  -0.006335
H   0.049151  -1.334352  -0.774055
