14
butane_opt
C  -3.958667   0.276571  -0.020752
C  -2.705702  -0.648952   0.089156
H  -4.818443  -0.274443  -0.084320
H  -3.935972   0.959701  -0.942614
H  -4.121989   0.914320   0.809090
C  -1.396427   0.191690   0.052487
H  -2.708181  -1.293053  -0.698554
H  -2.717464  -1.345152   1.049669
C  -0.135479  -0.683986  -0.013320
H  -1.420260   0.867167   0.930361
H  -1.421518   0.755657  -0.812200
H  -0.129279  -1.191352   0.801907
H   0.729407  -0.071626  -0.000328
H  -0.130566  -1.408346  -0.929665
