14
butane_opt
C  -3.961580   0.243422  -0.011262
C  -2.702519  -0.609549   0.078476
H  -4.861318  -0.342289   0.010986
H  -3.942158   0.916940  -0.911236
H  -3.920943   0.883219   0.866446
C  -1.398029   0.236198   0.030275
H  -2.726881  -1.230478  -0.741952
H  -2.837524  -1.273551   0.994013
C  -0.145660  -0.713362   0.008944
H  -1.341007   0.773163   0.826335
H  -1.453202   0.894836  -0.907720
H  -0.098673  -1.184690   0.766382
H   0.719989  -0.180856   0.215220
H  -0.066239  -1.608555  -0.967889
