14
butane_opt
C  -3.953438   0.277025   0.012521
C  -2.674062  -0.620877   0.047433
H  -4.883916  -0.330341   0.154641
H  -3.956406   0.950807  -0.961705
H  -3.879449   0.839855   0.847723
C  -1.395483   0.166047   0.003091
H  -2.693750  -1.208335  -0.748461
H  -2.714407  -1.276198   0.964993
C  -0.183598  -0.693234   0.020290
H  -1.391473   0.877353   0.875075
H  -1.350399   0.778989  -0.832455
H  -0.334246  -1.150301   0.804213
H   0.720010  -0.074217   0.233700
H  -0.057032  -1.434480  -0.923508
