butane_opt
 OpenBabel08242015423D

 14 13  0  0  0  0  0  0  0  0999 V2000
   -3.9256    0.2857    0.0098 C   0  0  0  0  0  0  0  0  0  0  0  0
   -2.7103   -0.6214    0.0553 C   0  0  0  0  0  0  0  0  0  0  0  0
   -4.8483   -0.3614    0.1257 H   0  0  0  0  0  0  0  0  0  0  0  0
   -4.0035    0.9860   -0.9577 H   0  0  0  0  0  0  0  0  0  0  0  0
   -3.9221    0.7737    0.7606 H   0  0  0  0  0  0  0  0  0  0  0  0
   -1.4015    0.1801    0.0085 C   0  0  0  0  0  0  0  0  0  0  0  0
   -2.6965   -1.3069   -0.7761 H   0  0  0  0  0  0  0  0  0  0  0  0
   -2.6627   -1.3592    1.0245 H   0  0  0  0  0  0  0  0  0  0  0  0
   -0.1768   -0.6873    0.0028 C   0  0  0  0  0  0  0  0  0  0  0  0
   -1.3862    0.9355    0.9282 H   0  0  0  0  0  0  0  0  0  0  0  0
   -1.3223    0.7688   -0.8082 H   0  0  0  0  0  0  0  0  0  0  0  0
   -0.2620   -1.1827    0.8411 H   0  0  0  0  0  0  0  0  0  0  0  0
    0.6989   -0.1115    0.2466 H   0  0  0  0  0  0  0  0  0  0  0  0
   -0.0452   -1.5012   -0.9017 H   0  0  0  0  0  0  0  0  0  0  0  0
  1  2  1  0  0  0  0
  1  3  1  0  0  0  0
  1  5  1  0  0  0  0
  2  8  1  0  0  0  0
  4  1  1  0  0  0  0
  6  2  1  0  0  0  0
  6 10  1  0  0  0  0
  7  2  1  0  0  0  0
  9  6  1  0  0  0  0
  9 13  1  0  0  0  0
  9 12  1  0  0  0  0
 11  6  1  0  0  0  0
 14  9  1  0  0  0  0
M  END
$$$$
