butane_opt
 OpenBabel08242015423D

 14 13  0  0  0  0  0  0  0  0999 V2000
   -3.9363    0.2735    0.0051 C   0  0  0  0  0  0  0  0  0  0  0  0
   -2.6866   -0.6249    0.0656 C   0  0  0  0  0  0  0  0  0  0  0  0
   -4.8194   -0.3137    0.0476 H   0  0  0  0  0  0  0  0  0  0  0  0
   -4.0097    0.9853   -0.9476 H   0  0  0  0  0  0  0  0  0  0  0  0
   -4.0106    0.8570    0.7807 H   0  0  0  0  0  0  0  0  0  0  0  0
   -1.4035    0.1668    0.0258 C   0  0  0  0  0  0  0  0  0  0  0  0
   -2.7026   -1.2880   -0.7966 H   0  0  0  0  0  0  0  0  0  0  0  0
   -2.7016   -1.2922    0.9696 H   0  0  0  0  0  0  0  0  0  0  0  0
   -0.1764   -0.6803    0.0124 C   0  0  0  0  0  0  0  0  0  0  0  0
   -1.3373    0.8654    0.8796 H   0  0  0  0  0  0  0  0  0  0  0  0
   -1.4386    0.8220   -0.8596 H   0  0  0  0  0  0  0  0  0  0  0  0
   -0.2162   -1.1954    0.8495 H   0  0  0  0  0  0  0  0  0  0  0  0
    0.7658   -0.0429    0.1318 H   0  0  0  0  0  0  0  0  0  0  0  0
   -0.1209   -1.4915   -0.9416 H   0  0  0  0  0  0  0  0  0  0  0  0
  1  3  1  0  0  0  0
  1  2  1  0  0  0  0
  1  5  1  0  0  0  0
  2  8  1  0  0  0  0
  4  1  1  0  0  0  0
  6  2  1  0  0  0  0
  6 10  1  0  0  0  0
  7  2  1  0  0  0  0
  9  6  1  0  0  0  0
  9 13  1  0  0  0  0
  9 12  1  0  0  0  0
 11  6  1  0  0  0  0
 14  9  1  0  0  0  0
M  END
$$$$
