14
butane_opt
C  -3.912163   0.258622  -0.021537
C  -2.706651  -0.605498   0.089754
H  -4.811263  -0.334182  -0.169588
H  -3.898847   0.702654  -0.821921
H  -4.012307   0.999146   0.931778
C  -1.419449   0.204798   0.024711
H  -2.575383  -1.202937  -0.701904
H  -2.762437  -1.334259   1.024009
C  -0.167293  -0.705827   0.001402
H  -1.383989   0.888853   0.907044
H  -1.472610   0.770267  -0.824052
H  -0.144044  -1.300701   0.901563
H   0.741190  -0.104402  -0.056457
H  -0.228337  -1.382527  -0.867354
