butane_opt
 OpenBabel08242015423D

 14 13  0  0  0  0  0  0  0  0999 V2000
   -3.9628    0.2875   -0.0479 C   0  0  0  0  0  0  0  0  0  0  0  0
   -2.6856   -0.6481    0.1003 C   0  0  0  0  0  0  0  0  0  0  0  0
   -4.8463   -0.2661   -0.0373 H   0  0  0  0  0  0  0  0  0  0  0  0
   -3.9482    0.8438   -0.8963 H   0  0  0  0  0  0  0  0  0  0  0  0
   -4.0950    1.0077    0.8568 H   0  0  0  0  0  0  0  0  0  0  0  0
   -1.3797    0.1673    0.0701 C   0  0  0  0  0  0  0  0  0  0  0  0
   -2.7279   -1.2824   -0.7026 H   0  0  0  0  0  0  0  0  0  0  0  0
   -2.7622   -1.3093    1.0089 H   0  0  0  0  0  0  0  0  0  0  0  0
   -0.1800   -0.6803   -0.0153 C   0  0  0  0  0  0  0  0  0  0  0  0
   -1.2914    0.8689    0.9255 H   0  0  0  0  0  0  0  0  0  0  0  0
   -1.3741    0.8260   -0.8607 H   0  0  0  0  0  0  0  0  0  0  0  0
   -0.0194   -1.2404    0.8478 H   0  0  0  0  0  0  0  0  0  0  0  0
    0.7108   -0.0573   -0.0812 H   0  0  0  0  0  0  0  0  0  0  0  0
   -0.1881   -1.3778   -0.9014 H   0  0  0  0  0  0  0  0  0  0  0  0
  1  3  1  0  0  0  0
  1  2  1  0  0  0  0
  1  5  1  0  0  0  0
  2  8  1  0  0  0  0
  4  1  1  0  0  0  0
  6  2  1  0  0  0  0
  6 10  1  0  0  0  0
  7  2  1  0  0  0  0
  9  6  1  0  0  0  0
  9 12  1  0  0  0  0
 11  6  1  0  0  0  0
 13  9  1  0  0  0  0
 14  9  1  0  0  0  0
M  END
$$$$
