butane_opt
 OpenBabel08242015423D

 14 13  0  0  0  0  0  0  0  0999 V2000
   -3.9511    0.2854   -0.0367 C   0  0  0  0  0  0  0  0  0  0  0  0
   -2.7134   -0.6399    0.0672 C   0  0  0  0  0  0  0  0  0  0  0  0
   -4.8679   -0.3106    0.0212 H   0  0  0  0  0  0  0  0  0  0  0  0
   -3.9707    0.9179   -0.9090 H   0  0  0  0  0  0  0  0  0  0  0  0
   -4.0909    0.9125    0.7508 H   0  0  0  0  0  0  0  0  0  0  0  0
   -1.3782    0.1804    0.1059 C   0  0  0  0  0  0  0  0  0  0  0  0
   -2.7082   -1.3168   -0.7824 H   0  0  0  0  0  0  0  0  0  0  0  0
   -2.7161   -1.2802    0.9748 H   0  0  0  0  0  0  0  0  0  0  0  0
   -0.1621   -0.6753   -0.0171 C   0  0  0  0  0  0  0  0  0  0  0  0
   -1.3571    0.8362    0.8899 H   0  0  0  0  0  0  0  0  0  0  0  0
   -1.3733    0.7669   -0.7595 H   0  0  0  0  0  0  0  0  0  0  0  0
    0.0813   -1.3781    0.9338 H   0  0  0  0  0  0  0  0  0  0  0  0
    0.6928   -0.1470   -0.2919 H   0  0  0  0  0  0  0  0  0  0  0  0
   -0.2582   -1.2790   -0.8164 H   0  0  0  0  0  0  0  0  0  0  0  0
  1  3  1  0  0  0  0
  1  2  1  0  0  0  0
  1  5  1  0  0  0  0
  2  6  1  0  0  0  0
  2  8  1  0  0  0  0
  4  1  1  0  0  0  0
  6 10  1  0  0  0  0
  7  2  1  0  0  0  0
  9  6  1  0  0  0  0
  9 12  1  0  0  0  0
 11  6  1  0  0  0  0
 13  9  1  0  0  0  0
 14  9  1  0  0  0  0
M  END
$$$$
