14
butane_opt
C  -3.957254   0.266048   0.050676
C  -2.694040  -0.633740  -0.006202
H  -4.837445  -0.290462   0.113450
H  -4.077814   0.903747  -0.829790
H  -3.944522   0.980288   0.916910
C  -1.395893   0.177145  -0.019472
H  -2.738798  -1.277563  -0.849422
H  -2.689970  -1.246557   0.877234
C  -0.151617  -0.682964   0.061387
H  -1.403264   0.856708   0.827179
H  -1.397782   0.835520  -0.958697
H  -0.180950  -1.333996   0.994283
H   0.762626  -0.082162   0.105998
H  -0.131437  -1.336594  -0.784917
