14
butane_opt
C  -3.958021   0.272365  -0.007948
C  -2.716751  -0.625441   0.067928
H  -4.850788  -0.306093   0.053011
H  -3.989690   0.919074  -0.950959
H  -3.949795   1.001622   0.869452
C  -1.393609   0.172107   0.008842
H  -2.739524  -1.189623  -0.676738
H  -2.682965  -1.404608   1.038518
C  -0.151395  -0.694574   0.015841
H  -1.365018   0.891610   0.908308
H  -1.367750   0.825549  -0.888116
H  -0.171228  -1.112199   0.792043
H   0.856575  -0.045186   0.256661
H  -0.136377  -1.538321  -0.996926
