butane_opt
 OpenBabel08242015423D

 14 13  0  0  0  0  0  0  0  0999 V2000
   -3.9580    0.2724   -0.0079 C   0  0  0  0  0  0  0  0  0  0  0  0
   -2.7168   -0.6254    0.0679 C   0  0  0  0  0  0  0  0  0  0  0  0
   -4.8508   -0.3061    0.0530 H   0  0  0  0  0  0  0  0  0  0  0  0
   -3.9897    0.9191   -0.9510 H   0  0  0  0  0  0  0  0  0  0  0  0
   -3.9498    1.0016    0.8695 H   0  0  0  0  0  0  0  0  0  0  0  0
   -1.3936    0.1721    0.0088 C   0  0  0  0  0  0  0  0  0  0  0  0
   -2.7395   -1.1896   -0.6767 H   0  0  0  0  0  0  0  0  0  0  0  0
   -2.6830   -1.4046    1.0385 H   0  0  0  0  0  0  0  0  0  0  0  0
   -0.1514   -0.6946    0.0158 C   0  0  0  0  0  0  0  0  0  0  0  0
   -1.3650    0.8916    0.9083 H   0  0  0  0  0  0  0  0  0  0  0  0
   -1.3678    0.8255   -0.8881 H   0  0  0  0  0  0  0  0  0  0  0  0
   -0.1712   -1.1122    0.7920 H   0  0  0  0  0  0  0  0  0  0  0  0
    0.8566   -0.0452    0.2567 H   0  0  0  0  0  0  0  0  0  0  0  0
   -0.1364   -1.5383   -0.9969 H   0  0  0  0  0  0  0  0  0  0  0  0
  1  3  1  0  0  0  0
  1  2  1  0  0  0  0
  1  5  1  0  0  0  0
  2  8  1  0  0  0  0
  4  1  1  0  0  0  0
  6  9  1  0  0  0  0
  6  2  1  0  0  0  0
  6 10  1  0  0  0  0
  7  2  1  0  0  0  0
  9 13  1  0  0  0  0
  9 12  1  0  0  0  0
 11  6  1  0  0  0  0
 14  9  1  0  0  0  0
M  END
$$$$
