14
butane_opt
C  -3.943876   0.275533   0.058287
C  -2.694715  -0.605728  -0.020122
H  -4.881603  -0.340141   0.077201
H  -3.976749   0.802891  -0.781239
H  -3.906436   0.942576   0.926618
C  -1.389308   0.172665  -0.014380
H  -2.691220  -1.400179  -0.925687
H  -2.696183  -1.195698   0.816044
C  -0.171998  -0.694230   0.078532
H  -1.473789   0.850732   0.823202
H  -1.347372   0.855284  -0.950080
H  -0.074450  -1.464098   1.128229
H   0.772766  -0.064696  -0.162656
H  -0.352586  -1.232976  -0.714700
