butane_opt
 OpenBabel08242015423D

 14 13  0  0  0  0  0  0  0  0999 V2000
   -3.9686    0.2814   -0.0470 C   0  0  0  0  0  0  0  0  0  0  0  0
   -2.7040   -0.6405    0.1218 C   0  0  0  0  0  0  0  0  0  0  0  0
   -4.7882   -0.2595   -0.1929 H   0  0  0  0  0  0  0  0  0  0  0  0
   -3.8025    0.7734   -0.8799 H   0  0  0  0  0  0  0  0  0  0  0  0
   -4.1588    1.0772    0.8967 H   0  0  0  0  0  0  0  0  0  0  0  0
   -1.3791    0.1749    0.0447 C   0  0  0  0  0  0  0  0  0  0  0  0
   -2.6479   -1.2697   -0.6253 H   0  0  0  0  0  0  0  0  0  0  0  0
   -2.7021   -1.3668    1.0974 H   0  0  0  0  0  0  0  0  0  0  0  0
   -0.1766   -0.6852   -0.0255 C   0  0  0  0  0  0  0  0  0  0  0  0
   -1.3200    0.9687    0.9830 H   0  0  0  0  0  0  0  0  0  0  0  0
   -1.3424    0.7572   -0.8158 H   0  0  0  0  0  0  0  0  0  0  0  0
   -0.0989   -1.2617    0.8355 H   0  0  0  0  0  0  0  0  0  0  0  0
    0.7606   -0.0939   -0.0573 H   0  0  0  0  0  0  0  0  0  0  0  0
   -0.1952   -1.3547   -0.9217 H   0  0  0  0  0  0  0  0  0  0  0  0
  1  2  1  0  0  0  0
  1  5  1  0  0  0  0
  2  8  1  0  0  0  0
  3  1  1  0  0  0  0
  4  1  1  0  0  0  0
  6  2  1  0  0  0  0
  6 10  1  0  0  0  0
  7  2  1  0  0  0  0
  9  6  1  0  0  0  0
  9 12  1  0  0  0  0
 11  6  1  0  0  0  0
 13  9  1  0  0  0  0
 14  9  1  0  0  0  0
M  END
$$$$
