butane_opt
 OpenBabel08242015423D

 14 13  0  0  0  0  0  0  0  0999 V2000
   -3.9406    0.2744    0.0486 C   0  0  0  0  0  0  0  0  0  0  0  0
   -2.6884   -0.6316    0.0008 C   0  0  0  0  0  0  0  0  0  0  0  0
   -4.8159   -0.3013    0.1135 H   0  0  0  0  0  0  0  0  0  0  0  0
   -4.0917    0.8815   -0.8228 H   0  0  0  0  0  0  0  0  0  0  0  0
   -3.9452    0.9412    0.9280 H   0  0  0  0  0  0  0  0  0  0  0  0
   -1.3987    0.1708   -0.0273 C   0  0  0  0  0  0  0  0  0  0  0  0
   -2.7570   -1.3175   -0.8505 H   0  0  0  0  0  0  0  0  0  0  0  0
   -2.6423   -1.2122    0.8813 H   0  0  0  0  0  0  0  0  0  0  0  0
   -0.1718   -0.6788    0.0715 C   0  0  0  0  0  0  0  0  0  0  0  0
   -1.4573    0.7884    0.7740 H   0  0  0  0  0  0  0  0  0  0  0  0
   -1.3611    0.8560   -0.9579 H   0  0  0  0  0  0  0  0  0  0  0  0
   -0.2111   -1.2530    0.9591 H   0  0  0  0  0  0  0  0  0  0  0  0
    0.7564   -0.0666    0.1085 H   0  0  0  0  0  0  0  0  0  0  0  0
   -0.1083   -1.4033   -0.8302 H   0  0  0  0  0  0  0  0  0  0  0  0
  1  3  1  0  0  0  0
  1  5  1  0  0  0  0
  2  1  1  0  0  0  0
  2  8  1  0  0  0  0
  4  1  1  0  0  0  0
  6  2  1  0  0  0  0
  6  9  1  0  0  0  0
  6 10  1  0  0  0  0
  7  2  1  0  0  0  0
  9 13  1  0  0  0  0
  9 12  1  0  0  0  0
 11  6  1  0  0  0  0
 14  9  1  0  0  0  0
M  END
$$$$
