14
butane_opt
C  -3.926687   0.269418  -0.022064
C  -2.693394  -0.612226   0.077197
H  -4.851430  -0.344708   0.006055
H  -3.992747   0.985951  -0.963369
H  -4.012210   0.826053   0.721542
C  -1.396823   0.179721   0.058008
H  -2.632745  -1.271542  -0.781555
H  -2.666867  -1.281462   1.028679
C  -0.192232  -0.686673  -0.013097
H  -1.321989   0.967389   0.979607
H  -1.401283   0.605363  -0.700274
H  -0.102287  -1.315463   0.903283
H   0.725078  -0.114315  -0.158446
H  -0.241595  -1.330406  -0.814433
