14
butane_opt
C  -3.970775   0.283985   0.003626
C  -2.682157  -0.639282   0.064299
H  -4.889019  -0.265374   0.080696
H  -4.070003   0.921306  -0.905305
H  -4.027784   0.884834   0.816791
C  -1.394857   0.170356  -0.005355
H  -2.758791  -1.238033  -0.718608
H  -2.666832  -1.329683   0.981431
C  -0.147314  -0.677298   0.021232
H  -1.350665   0.833385   0.877284
H  -1.389796   0.753222  -0.845499
H  -0.249181  -1.147025   0.817516
H   0.815679  -0.010916   0.284996
H  -0.102334  -1.524016  -0.979140
