14
butane_opt
C  -3.945758   0.273453  -0.005446
C  -2.686374  -0.636077   0.047166
H  -4.847132  -0.311487   0.184857
H  -4.017101   1.015739  -0.982393
H  -3.980367   0.830073   0.772318
C  -1.407476   0.182651   0.045418
H  -2.676169  -1.279089  -0.788130
H  -2.711873  -1.280967   0.979063
C  -0.168944  -0.686804   0.007673
H  -1.368800   0.940226   0.940126
H  -1.345874   0.752751  -0.822864
H  -0.149761  -1.286507   0.878314
H   0.752736  -0.051311   0.022797
H  -0.175102  -1.399410  -0.895865
