14
butane_opt
C  -3.947555   0.248770  -0.024551
C  -2.732052  -0.612367   0.102804
H  -4.820000  -0.306881  -0.229034
H  -3.849495   0.743402  -0.844147
H  -3.997470   1.019457   0.913057
C  -1.402003   0.211215   0.048463
H  -2.666359  -1.188326  -0.693310
H  -2.812755  -1.263736   0.985019
C  -0.142553  -0.712821  -0.002077
H  -1.303735   0.843730   0.838343
H  -1.462736   0.921209  -0.888856
H  -0.000756  -1.273627   0.841661
H   0.687833  -0.176527  -0.023046
H  -0.111704  -1.425760  -0.940527
