butane_opt
 OpenBabel08242015423D

 14 13  0  0  0  0  0  0  0  0999 V2000
   -3.9343    0.2732    0.0681 C   0  0  0  0  0  0  0  0  0  0  0  0
   -2.6999   -0.6158   -0.0029 C   0  0  0  0  0  0  0  0  0  0  0  0
   -4.8178   -0.2908    0.1089 H   0  0  0  0  0  0  0  0  0  0  0  0
   -3.9969    0.7918   -0.7580 H   0  0  0  0  0  0  0  0  0  0  0  0
   -3.9455    1.0272    0.9883 H   0  0  0  0  0  0  0  0  0  0  0  0
   -1.4096    0.1477   -0.0717 C   0  0  0  0  0  0  0  0  0  0  0  0
   -2.7816   -1.3027   -0.8687 H   0  0  0  0  0  0  0  0  0  0  0  0
   -2.5795   -1.1808    0.8283 H   0  0  0  0  0  0  0  0  0  0  0  0
   -0.1738   -0.6794    0.0995 C   0  0  0  0  0  0  0  0  0  0  0  0
   -1.4877    0.7112    0.7092 H   0  0  0  0  0  0  0  0  0  0  0  0
   -1.3018    0.9201   -1.0255 H   0  0  0  0  0  0  0  0  0  0  0  0
   -0.2165   -1.1755    0.8784 H   0  0  0  0  0  0  0  0  0  0  0  0
    0.8122   -0.0322    0.2338 H   0  0  0  0  0  0  0  0  0  0  0  0
   -0.1092   -1.4417   -0.7755 H   0  0  0  0  0  0  0  0  0  0  0  0
  1  3  1  0  0  0  0
  1  5  1  0  0  0  0
  2  1  1  0  0  0  0
  2  8  1  0  0  0  0
  4  1  1  0  0  0  0
  6  2  1  0  0  0  0
  6  9  1  0  0  0  0
  6 10  1  0  0  0  0
  7  2  1  0  0  0  0
  9 13  1  0  0  0  0
  9 12  1  0  0  0  0
 11  6  1  0  0  0  0
 14  9  1  0  0  0  0
M  END
$$$$
