14
butane_opt
C  -3.988144   0.289962  -0.023340
C  -2.682015  -0.650488   0.072771
H  -4.862279  -0.344785  -0.078009
H  -3.904262   0.967134  -0.975838
H  -4.070162   0.977178   0.818180
C  -1.374274   0.168417   0.089111
H  -2.686517  -1.286566  -0.750528
H  -2.775712  -1.287475   0.995702
C  -0.164081  -0.679661  -0.004879
H  -1.299593   0.852456   0.939141
H  -1.377228   0.822115  -0.857428
H  -0.014173  -1.309542   0.872220
H   0.771315  -0.058511  -0.232900
H  -0.310450  -1.333135  -0.892923
