butane_opt
 OpenBabel08242015423D

 14 13  0  0  0  0  0  0  0  0999 V2000
   -3.9675    0.2795   -0.0155 C   0  0  0  0  0  0  0  0  0  0  0  0
   -2.7001   -0.6226    0.0625 C   0  0  0  0  0  0  0  0  0  0  0  0
   -4.8546   -0.3011    0.0600 H   0  0  0  0  0  0  0  0  0  0  0  0
   -3.9633    0.9248   -0.9353 H   0  0  0  0  0  0  0  0  0  0  0  0
   -4.0322    0.9003    0.8319 H   0  0  0  0  0  0  0  0  0  0  0  0
   -1.3815    0.1677    0.0599 C   0  0  0  0  0  0  0  0  0  0  0  0
   -2.6732   -1.3438   -0.7995 H   0  0  0  0  0  0  0  0  0  0  0  0
   -2.7418   -1.2679    0.9518 H   0  0  0  0  0  0  0  0  0  0  0  0
   -0.1633   -0.6852   -0.0023 C   0  0  0  0  0  0  0  0  0  0  0  0
   -1.3345    0.8783    0.9220 H   0  0  0  0  0  0  0  0  0  0  0  0
   -1.3876    0.7763   -0.8273 H   0  0  0  0  0  0  0  0  0  0  0  0
   -0.0802   -1.3347    0.9172 H   0  0  0  0  0  0  0  0  0  0  0  0
    0.7723   -0.0834   -0.0994 H   0  0  0  0  0  0  0  0  0  0  0  0
   -0.1867   -1.2796   -0.8278 H   0  0  0  0  0  0  0  0  0  0  0  0
  1  3  1  0  0  0  0
  1  2  1  0  0  0  0
  1  5  1  0  0  0  0
  2  8  1  0  0  0  0
  4  1  1  0  0  0  0
  6  2  1  0  0  0  0
  6 10  1  0  0  0  0
  7  2  1  0  0  0  0
  9  6  1  0  0  0  0
  9 12  1  0  0  0  0
 11  6  1  0  0  0  0
 13  9  1  0  0  0  0
 14  9  1  0  0  0  0
M  END
$$$$
