14
butane_opt
C  -3.949195   0.241052  -0.054581
C  -2.700012  -0.591084   0.127890
H  -4.856344  -0.325740  -0.163571
H  -3.899740   0.812933  -0.893142
H  -4.089868   0.956265   0.830911
C  -1.400015   0.207402   0.055103
H  -2.745904  -1.250827  -0.701526
H  -2.752507  -1.349747   1.131111
C  -0.136852  -0.701860  -0.037307
H  -1.355956   0.939899   1.011882
H  -1.525671   0.761414  -0.771645
H  -0.114423  -1.301595   0.813521
H   0.687582  -0.166789   0.000639
H  -0.123399  -1.420621  -0.918072
