14
butane_opt
C  -3.942676   0.261560   0.007805
C  -2.677143  -0.641947   0.055647
H  -4.801728  -0.289718   0.188220
H  -3.981531   1.109163  -1.009280
H  -3.920242   0.856897   0.781591
C  -1.408397   0.192109   0.020194
H  -2.774705  -1.344171  -0.819113
H  -2.716436  -1.176002   0.892423
C  -0.172988  -0.691191   0.019084
H  -1.445772   0.877336   0.889101
H  -1.386685   0.754017  -0.855568
H  -0.168500  -1.190258   0.869014
H   0.764617  -0.072697   0.108634
H  -0.185070  -1.429594  -0.864243
