14
butane_opt
C  -3.950238   0.265008   0.050491
C  -2.695332  -0.610210   0.003649
H  -4.887204  -0.325727  -0.156108
H  -3.949862   0.651218  -0.628584
H  -3.960512   1.254858   1.129940
C  -1.388814   0.151419  -0.062113
H  -2.667997  -1.262134  -0.815892
H  -2.678643  -1.246365   0.949529
C  -0.175253  -0.680492   0.085284
H  -1.340399   0.809619   0.772444
H  -1.375159   0.901936  -1.012783
H  -0.204769  -1.404878   1.052965
H   0.749533  -0.077811   0.015392
H  -0.185806  -1.301763  -0.755523
