butane_opt
 OpenBabel08242015423D

 14 13  0  0  0  0  0  0  0  0999 V2000
   -3.9427    0.2616    0.0078 C   0  0  0  0  0  0  0  0  0  0  0  0
   -2.6771   -0.6419    0.0556 C   0  0  0  0  0  0  0  0  0  0  0  0
   -4.8017   -0.2897    0.1882 H   0  0  0  0  0  0  0  0  0  0  0  0
   -3.9815    1.1092   -1.0093 H   0  0  0  0  0  0  0  0  0  0  0  0
   -3.9202    0.8569    0.7816 H   0  0  0  0  0  0  0  0  0  0  0  0
   -1.4084    0.1921    0.0202 C   0  0  0  0  0  0  0  0  0  0  0  0
   -2.7747   -1.3442   -0.8191 H   0  0  0  0  0  0  0  0  0  0  0  0
   -2.7164   -1.1760    0.8924 H   0  0  0  0  0  0  0  0  0  0  0  0
   -0.1730   -0.6912    0.0191 C   0  0  0  0  0  0  0  0  0  0  0  0
   -1.4458    0.8773    0.8891 H   0  0  0  0  0  0  0  0  0  0  0  0
   -1.3867    0.7540   -0.8556 H   0  0  0  0  0  0  0  0  0  0  0  0
   -0.1685   -1.1903    0.8690 H   0  0  0  0  0  0  0  0  0  0  0  0
    0.7646   -0.0727    0.1086 H   0  0  0  0  0  0  0  0  0  0  0  0
   -0.1851   -1.4296   -0.8642 H   0  0  0  0  0  0  0  0  0  0  0  0
  1  2  1  0  0  0  0
  1  3  1  0  0  0  0
  1  5  1  0  0  0  0
  2  8  1  0  0  0  0
  4  1  1  0  0  0  0
  6  2  1  0  0  0  0
  6 10  1  0  0  0  0
  7  2  1  0  0  0  0
  9  6  1  0  0  0  0
  9 13  1  0  0  0  0
  9 12  1  0  0  0  0
 11  6  1  0  0  0  0
 14  9  1  0  0  0  0
M  END
$$$$
