butane_opt
 OpenBabel08242015423D

 14 13  0  0  0  0  0  0  0  0999 V2000
   -3.9451    0.2377   -0.0469 C   0  0  0  0  0  0  0  0  0  0  0  0
   -2.7141   -0.6060    0.1050 C   0  0  0  0  0  0  0  0  0  0  0  0
   -4.8814   -0.3389   -0.0568 H   0  0  0  0  0  0  0  0  0  0  0  0
   -3.9469    0.9335   -1.0257 H   0  0  0  0  0  0  0  0  0  0  0  0
   -4.0335    0.9315    0.7863 H   0  0  0  0  0  0  0  0  0  0  0  0
   -1.3984    0.2154    0.0913 C   0  0  0  0  0  0  0  0  0  0  0  0
   -2.6386   -1.2334   -0.7554 H   0  0  0  0  0  0  0  0  0  0  0  0
   -2.7941   -1.2151    1.0112 H   0  0  0  0  0  0  0  0  0  0  0  0
   -0.1497   -0.7132   -0.0342 C   0  0  0  0  0  0  0  0  0  0  0  0
   -1.2567    0.9623    1.0214 H   0  0  0  0  0  0  0  0  0  0  0  0
   -1.4379    0.7546   -0.7088 H   0  0  0  0  0  0  0  0  0  0  0  0
   -0.0206   -1.4020    0.9057 H   0  0  0  0  0  0  0  0  0  0  0  0
    0.6885   -0.1991   -0.2482 H   0  0  0  0  0  0  0  0  0  0  0  0
   -0.1843   -1.2911   -0.8673 H   0  0  0  0  0  0  0  0  0  0  0  0
  1  2  1  0  0  0  0
  1  5  1  0  0  0  0
  2  8  1  0  0  0  0
  3  1  1  0  0  0  0
  4  1  1  0  0  0  0
  6  2  1  0  0  0  0
  6 10  1  0  0  0  0
  7  2  1  0  0  0  0
  9  6  1  0  0  0  0
  9 12  1  0  0  0  0
 11  6  1  0  0  0  0
 13  9  1  0  0  0  0
 14  9  1  0  0  0  0
M  END
$$$$
