14
butane_opt
C  -3.938089   0.258081   0.045920
C  -2.702227  -0.592592   0.042528
H  -4.899858  -0.384452  -0.210239
H  -3.786541   0.652541  -0.729445
H  -3.946719   1.168726   1.052093
C  -1.400881   0.192285  -0.036681
H  -2.739782  -1.345792  -0.913977
H  -2.633206  -1.214862   0.888342
C  -0.177553  -0.707666   0.054509
H  -1.361774   0.764810   0.766909
H  -1.434173   0.883183  -0.989087
H  -0.186428  -1.437429   1.080703
H   0.745422  -0.082797   0.018074
H  -0.154844  -1.283553  -0.758320
