14
butane_opt
C  -3.942010   0.254386  -0.008525
C  -2.701962  -0.604789   0.055402
H  -4.882933  -0.355882   0.035644
H  -3.939294   0.907803  -0.897258
H  -3.968643   0.878337   0.812478
C  -1.402745   0.208423   0.042268
H  -2.758143  -1.291382  -0.819634
H  -2.715712  -1.264030   0.963239
C  -0.156427  -0.707266   0.011397
H  -1.365552   0.953230   0.955898
H  -1.383214   0.757190  -0.801121
H  -0.079116  -1.385168   0.947279
H   0.702190  -0.163076  -0.156995
H  -0.183059  -1.324781  -0.813640
