butane_opt
 OpenBabel08242015423D

 14 13  0  0  0  0  0  0  0  0999 V2000
   -3.8965    0.2490   -0.0217 C   0  0  0  0  0  0  0  0  0  0  0  0
   -2.7100   -0.6069    0.0980 C   0  0  0  0  0  0  0  0  0  0  0  0
   -4.8669   -0.3916   -0.2115 H   0  0  0  0  0  0  0  0  0  0  0  0
   -3.7876    0.7719   -0.8378 H   0  0  0  0  0  0  0  0  0  0  0  0
   -4.0309    1.0372    0.9064 H   0  0  0  0  0  0  0  0  0  0  0  0
   -1.4217    0.2081    0.0194 C   0  0  0  0  0  0  0  0  0  0  0  0
   -2.7653   -1.1923   -0.6711 H   0  0  0  0  0  0  0  0  0  0  0  0
   -2.7625   -1.2960    1.0739 H   0  0  0  0  0  0  0  0  0  0  0  0
   -0.1702   -0.7138    0.0038 C   0  0  0  0  0  0  0  0  0  0  0  0
   -1.3854    1.0177    0.9282 H   0  0  0  0  0  0  0  0  0  0  0  0
   -1.5231    0.8359   -0.8422 H   0  0  0  0  0  0  0  0  0  0  0  0
   -0.1521   -1.3083    0.8703 H   0  0  0  0  0  0  0  0  0  0  0  0
    0.7510   -0.1318   -0.0562 H   0  0  0  0  0  0  0  0  0  0  0  0
   -0.1154   -1.4744   -0.9181 H   0  0  0  0  0  0  0  0  0  0  0  0
  1  2  1  0  0  0  0
  1  5  1  0  0  0  0
  2  8  1  0  0  0  0
  3  1  1  0  0  0  0
  4  1  1  0  0  0  0
  6  2  1  0  0  0  0
  6 10  1  0  0  0  0
  7  2  1  0  0  0  0
  9  6  1  0  0  0  0
  9 12  1  0  0  0  0
 11  6  1  0  0  0  0
 13  9  1  0  0  0  0
 14  9  1  0  0  0  0
M  END
$$$$
