14
butane_opt
C  -3.949074   0.268325   0.008211
C  -2.686971  -0.609885   0.055113
H  -4.873931  -0.346866   0.030716
H  -3.978201   0.890798  -0.893689
H  -3.960484   0.913097   0.844613
C  -1.400430   0.170039   0.013765
H  -2.677787  -1.302228  -0.783986
H  -2.712885  -1.248691   0.972760
C  -0.166804  -0.679833   0.024835
H  -1.367711   0.814146   0.864674
H  -1.427595   0.842022  -0.912491
H  -0.163312  -1.240447   0.885972
H   0.744440  -0.086545   0.108546
H  -0.168133  -1.492823  -0.908078
