14
butane_opt
C  -3.960808   0.258600  -0.034928
C  -2.718116  -0.603830   0.104306
H  -4.910319  -0.344568   0.066355
H  -3.933856   0.965603  -0.943410
H  -3.949004   0.824930   0.785475
C  -1.386411   0.181505   0.030328
H  -2.688051  -1.156992  -0.646725
H  -2.757372  -1.292207   0.996697
C  -0.141249  -0.690982  -0.008929
H  -1.283186   0.905072   0.928147
H  -1.521707   0.773453  -0.809566
H  -0.204572  -1.115967   0.763136
H   0.703171  -0.154060   0.215245
H  -0.002207  -1.638345  -1.033468
