butane_opt
 OpenBabel08242015423D

 14 13  0  0  0  0  0  0  0  0999 V2000
   -3.9463    0.2829   -0.0188 C   0  0  0  0  0  0  0  0  0  0  0  0
   -2.7130   -0.6299    0.0933 C   0  0  0  0  0  0  0  0  0  0  0  0
   -4.8901   -0.3195    0.0274 H   0  0  0  0  0  0  0  0  0  0  0  0
   -3.9574    0.9211   -0.9270 H   0  0  0  0  0  0  0  0  0  0  0  0
   -4.0200    0.8604    0.8283 H   0  0  0  0  0  0  0  0  0  0  0  0
   -1.4021    0.1728    0.0124 C   0  0  0  0  0  0  0  0  0  0  0  0
   -2.8132   -1.1798   -0.7109 H   0  0  0  0  0  0  0  0  0  0  0  0
   -2.7095   -1.3278    1.0392 H   0  0  0  0  0  0  0  0  0  0  0  0
   -0.1382   -0.6960    0.0011 C   0  0  0  0  0  0  0  0  0  0  0  0
   -1.3515    0.9266    0.9423 H   0  0  0  0  0  0  0  0  0  0  0  0
   -1.4080    0.7734   -0.8623 H   0  0  0  0  0  0  0  0  0  0  0  0
   -0.2770   -1.0731    0.7598 H   0  0  0  0  0  0  0  0  0  0  0  0
    0.8170   -0.0701    0.2157 H   0  0  0  0  0  0  0  0  0  0  0  0
   -0.0235   -1.5476   -0.9689 H   0  0  0  0  0  0  0  0  0  0  0  0
  1  3  1  0  0  0  0
  1  2  1  0  0  0  0
  1  5  1  0  0  0  0
  2  8  1  0  0  0  0
  4  1  1  0  0  0  0
  6  2  1  0  0  0  0
  6 10  1  0  0  0  0
  7  2  1  0  0  0  0
  9  6  1  0  0  0  0
  9 13  1  0  0  0  0
  9 12  1  0  0  0  0
 11  6  1  0  0  0  0
 14  9  1  0  0  0  0
M  END
$$$$
