butane_opt
 OpenBabel08242015423D

 14 13  0  0  0  0  0  0  0  0999 V2000
   -3.9592    0.2658   -0.0117 C   0  0  0  0  0  0  0  0  0  0  0  0
   -2.6942   -0.6304    0.0517 C   0  0  0  0  0  0  0  0  0  0  0  0
   -4.8298   -0.2830    0.2843 H   0  0  0  0  0  0  0  0  0  0  0  0
   -4.0265    1.1633   -1.0871 H   0  0  0  0  0  0  0  0  0  0  0  0
   -4.0212    0.7338    0.6832 H   0  0  0  0  0  0  0  0  0  0  0  0
   -1.4048    0.1955    0.0660 C   0  0  0  0  0  0  0  0  0  0  0  0
   -2.7267   -1.3302   -0.8051 H   0  0  0  0  0  0  0  0  0  0  0  0
   -2.7846   -1.3468    0.9679 H   0  0  0  0  0  0  0  0  0  0  0  0
   -0.1483   -0.6971   -0.0066 C   0  0  0  0  0  0  0  0  0  0  0  0
   -1.3696    0.9719    0.9835 H   0  0  0  0  0  0  0  0  0  0  0  0
   -1.3903    0.7063   -0.7390 H   0  0  0  0  0  0  0  0  0  0  0  0
   -0.0937   -1.2370    0.8386 H   0  0  0  0  0  0  0  0  0  0  0  0
    0.7982   -0.0371    0.0102 H   0  0  0  0  0  0  0  0  0  0  0  0
   -0.1105   -1.3959   -0.9153 H   0  0  0  0  0  0  0  0  0  0  0  0
  1  2  1  0  0  0  0
  1  3  1  0  0  0  0
  1  5  1  0  0  0  0
  2  6  1  0  0  0  0
  2  8  1  0  0  0  0
  4  1  1  0  0  0  0
  6 10  1  0  0  0  0
  7  2  1  0  0  0  0
  9 13  1  0  0  0  0
  9  6  1  0  0  0  0
  9 12  1  0  0  0  0
 11  6  1  0  0  0  0
 14  9  1  0  0  0  0
M  END
$$$$
