butane_opt
 OpenBabel08242015423D

 14 13  0  0  0  0  0  0  0  0999 V2000
   -3.9547    0.2767   -0.0033 C   0  0  0  0  0  0  0  0  0  0  0  0
   -2.6840   -0.6253    0.0705 C   0  0  0  0  0  0  0  0  0  0  0  0
   -4.8505   -0.3175    0.0697 H   0  0  0  0  0  0  0  0  0  0  0  0
   -3.9747    0.9640   -0.9639 H   0  0  0  0  0  0  0  0  0  0  0  0
   -3.9430    0.8534    0.7959 H   0  0  0  0  0  0  0  0  0  0  0  0
   -1.4039    0.1742    0.0194 C   0  0  0  0  0  0  0  0  0  0  0  0
   -2.6718   -1.2671   -0.7378 H   0  0  0  0  0  0  0  0  0  0  0  0
   -2.6834   -1.2967    0.9982 H   0  0  0  0  0  0  0  0  0  0  0  0
   -0.1741   -0.6841    0.0071 C   0  0  0  0  0  0  0  0  0  0  0  0
   -1.3639    0.8959    0.9230 H   0  0  0  0  0  0  0  0  0  0  0  0
   -1.3679    0.7238   -0.8393 H   0  0  0  0  0  0  0  0  0  0  0  0
   -0.2176   -1.2064    0.8341 H   0  0  0  0  0  0  0  0  0  0  0  0
    0.7741   -0.0315    0.1540 H   0  0  0  0  0  0  0  0  0  0  0  0
   -0.1320   -1.4788   -0.9435 H   0  0  0  0  0  0  0  0  0  0  0  0
  1  3  1  0  0  0  0
  1  2  1  0  0  0  0
  1  5  1  0  0  0  0
  2  8  1  0  0  0  0
  4  1  1  0  0  0  0
  6  2  1  0  0  0  0
  6 10  1  0  0  0  0
  7  2  1  0  0  0  0
  9  6  1  0  0  0  0
  9 13  1  0  0  0  0
  9 12  1  0  0  0  0
 11  6  1  0  0  0  0
 14  9  1  0  0  0  0
M  END
$$$$
