14
butane_opt
C  -3.942972   0.287853   0.056587
C  -2.684244  -0.648533  -0.017151
H  -4.864678  -0.341805   0.154492
H  -4.065054   0.922203  -0.858278
H  -3.893396   0.925617   0.933925
C  -1.402883   0.185335  -0.019183
H  -2.727784  -1.385617  -0.904271
H  -2.650567  -1.242713   0.843095
C  -0.171784  -0.672916   0.062485
H  -1.455054   0.883125   0.788539
H  -1.349411   0.728711  -0.849001
H  -0.230741  -1.414776   1.111578
H   0.723227  -0.105245  -0.050912
H  -0.090757  -1.254109  -0.725503
