14
butane_opt
C  -3.951019   0.241920  -0.006330
C  -2.696872  -0.597788   0.027101
H  -4.916862  -0.410460   0.277678
H  -4.005255   1.041848  -1.066276
H  -3.926986   0.779861   0.735778
C  -1.411590   0.216519   0.056852
H  -2.769489  -1.212294  -0.763373
H  -2.777958  -1.317285   1.008327
C  -0.138993  -0.723475   0.012114
H  -1.404870   0.998073   0.969302
H  -1.464822   0.797548  -0.762686
H  -0.005072  -1.252809   0.878476
H   0.771700  -0.115356  -0.010617
H  -0.131436  -1.433703  -0.921927
