butane_opt
 OpenBabel08242015423D

 14 13  0  0  0  0  0  0  0  0999 V2000
   -3.9540    0.2898   -0.0002 C   0  0  0  0  0  0  0  0  0  0  0  0
   -2.6995   -0.6448    0.0894 C   0  0  0  0  0  0  0  0  0  0  0  0
   -4.8091   -0.2775   -0.2486 H   0  0  0  0  0  0  0  0  0  0  0  0
   -3.8887    0.7860   -0.8369 H   0  0  0  0  0  0  0  0  0  0  0  0
   -4.0533    1.0765    0.9420 H   0  0  0  0  0  0  0  0  0  0  0  0
   -1.3968    0.1545    0.0069 C   0  0  0  0  0  0  0  0  0  0  0  0
   -2.6798   -1.3273   -0.7267 H   0  0  0  0  0  0  0  0  0  0  0  0
   -2.6981   -1.2252    0.9694 H   0  0  0  0  0  0  0  0  0  0  0  0
   -0.1569   -0.6680    0.0131 C   0  0  0  0  0  0  0  0  0  0  0  0
   -1.3048    0.7969    0.8182 H   0  0  0  0  0  0  0  0  0  0  0  0
   -1.5297    0.8080   -0.8536 H   0  0  0  0  0  0  0  0  0  0  0  0
   -0.1917   -1.3048    0.9245 H   0  0  0  0  0  0  0  0  0  0  0  0
    0.7974    0.0145    0.0116 H   0  0  0  0  0  0  0  0  0  0  0  0
   -0.1994   -1.3876   -0.8589 H   0  0  0  0  0  0  0  0  0  0  0  0
  1  2  1  0  0  0  0
  1  5  1  0  0  0  0
  2  8  1  0  0  0  0
  3  1  1  0  0  0  0
  4  1  1  0  0  0  0
  6  9  1  0  0  0  0
  6  2  1  0  0  0  0
  6 10  1  0  0  0  0
  7  2  1  0  0  0  0
  9 12  1  0  0  0  0
 11  6  1  0  0  0  0
 13  9  1  0  0  0  0
 14  9  1  0  0  0  0
M  END
$$$$
