butane_opt
 OpenBabel08242015423D

 14 13  0  0  0  0  0  0  0  0999 V2000
   -3.9236    0.2578   -0.0023 C   0  0  0  0  0  0  0  0  0  0  0  0
   -2.7058   -0.6056    0.0563 C   0  0  0  0  0  0  0  0  0  0  0  0
   -4.8229   -0.3336   -0.0515 H   0  0  0  0  0  0  0  0  0  0  0  0
   -3.9343    0.8609   -0.9032 H   0  0  0  0  0  0  0  0  0  0  0  0
   -3.9640    0.9606    0.8832 H   0  0  0  0  0  0  0  0  0  0  0  0
   -1.4179    0.1906    0.0373 C   0  0  0  0  0  0  0  0  0  0  0  0
   -2.7344   -1.2816   -0.8017 H   0  0  0  0  0  0  0  0  0  0  0  0
   -2.7442   -1.2690    0.9722 H   0  0  0  0  0  0  0  0  0  0  0  0
   -0.1695   -0.7026    0.0069 C   0  0  0  0  0  0  0  0  0  0  0  0
   -1.3238    0.9007    0.9147 H   0  0  0  0  0  0  0  0  0  0  0  0
   -1.4342    0.7944   -0.8002 H   0  0  0  0  0  0  0  0  0  0  0  0
   -0.0873   -1.4128    0.9561 H   0  0  0  0  0  0  0  0  0  0  0  0
    0.7687   -0.0860   -0.0876 H   0  0  0  0  0  0  0  0  0  0  0  0
   -0.1480   -1.2806   -0.8114 H   0  0  0  0  0  0  0  0  0  0  0  0
  1  2  1  0  0  0  0
  1  5  1  0  0  0  0
  2  8  1  0  0  0  0
  3  1  1  0  0  0  0
  4  1  1  0  0  0  0
  6  2  1  0  0  0  0
  6 10  1  0  0  0  0
  7  2  1  0  0  0  0
  9  6  1  0  0  0  0
  9 12  1  0  0  0  0
 11  6  1  0  0  0  0
 13  9  1  0  0  0  0
 14  9  1  0  0  0  0
M  END
$$$$
