butane_opt
 OpenBabel08242015423D

 14 13  0  0  0  0  0  0  0  0999 V2000
   -3.9223    0.2328    0.0496 C   0  0  0  0  0  0  0  0  0  0  0  0
   -2.7136   -0.5792   -0.0215 C   0  0  0  0  0  0  0  0  0  0  0  0
   -4.8095   -0.3626    0.1679 H   0  0  0  0  0  0  0  0  0  0  0  0
   -4.0180    0.8767   -0.8026 H   0  0  0  0  0  0  0  0  0  0  0  0
   -3.8493    0.9530    0.9577 H   0  0  0  0  0  0  0  0  0  0  0  0
   -1.4061    0.2116   -0.0225 C   0  0  0  0  0  0  0  0  0  0  0  0
   -2.8215   -1.3202   -0.9079 H   0  0  0  0  0  0  0  0  0  0  0  0
   -2.6755   -1.2161    0.8379 H   0  0  0  0  0  0  0  0  0  0  0  0
   -0.1727   -0.7236    0.0758 C   0  0  0  0  0  0  0  0  0  0  0  0
   -1.4504    0.9165    0.8259 H   0  0  0  0  0  0  0  0  0  0  0  0
   -1.3556    0.8334   -0.9246 H   0  0  0  0  0  0  0  0  0  0  0  0
   -0.0471   -1.4307    1.0205 H   0  0  0  0  0  0  0  0  0  0  0  0
    0.7335   -0.1624   -0.0300 H   0  0  0  0  0  0  0  0  0  0  0  0
   -0.1446   -1.2509   -0.6679 H   0  0  0  0  0  0  0  0  0  0  0  0
  1  3  1  0  0  0  0
  1  5  1  0  0  0  0
  2  1  1  0  0  0  0
  2  8  1  0  0  0  0
  4  1  1  0  0  0  0
  6  2  1  0  0  0  0
  6  9  1  0  0  0  0
  6 10  1  0  0  0  0
  7  2  1  0  0  0  0
  9 12  1  0  0  0  0
 11  6  1  0  0  0  0
 13  9  1  0  0  0  0
 14  9  1  0  0  0  0
M  END
$$$$
