butane_opt
 OpenBabel08242015423D

 14 13  0  0  0  0  0  0  0  0999 V2000
   -3.9682    0.2882   -0.0160 C   0  0  0  0  0  0  0  0  0  0  0  0
   -2.7080   -0.6397    0.0672 C   0  0  0  0  0  0  0  0  0  0  0  0
   -4.8666   -0.2631   -0.0326 H   0  0  0  0  0  0  0  0  0  0  0  0
   -3.9595    0.9249   -0.9248 H   0  0  0  0  0  0  0  0  0  0  0  0
   -4.0860    0.8550    0.8142 H   0  0  0  0  0  0  0  0  0  0  0  0
   -1.3909    0.1528    0.0761 C   0  0  0  0  0  0  0  0  0  0  0  0
   -2.5896   -1.3408   -0.7835 H   0  0  0  0  0  0  0  0  0  0  0  0
   -2.6634   -1.2001    0.9040 H   0  0  0  0  0  0  0  0  0  0  0  0
   -0.1515   -0.6621   -0.0120 C   0  0  0  0  0  0  0  0  0  0  0  0
   -1.2280    0.8412    0.9093 H   0  0  0  0  0  0  0  0  0  0  0  0
   -1.4550    0.7938   -0.8202 H   0  0  0  0  0  0  0  0  0  0  0  0
   -0.0417   -1.3882    0.9467 H   0  0  0  0  0  0  0  0  0  0  0  0
    0.7544   -0.1205   -0.1309 H   0  0  0  0  0  0  0  0  0  0  0  0
   -0.2692   -1.2403   -0.8061 H   0  0  0  0  0  0  0  0  0  0  0  0
  1  2  1  0  0  0  0
  1  5  1  0  0  0  0
  2  6  1  0  0  0  0
  2  8  1  0  0  0  0
  3  1  1  0  0  0  0
  4  1  1  0  0  0  0
  6 10  1  0  0  0  0
  7  2  1  0  0  0  0
  9  6  1  0  0  0  0
  9 12  1  0  0  0  0
 11  6  1  0  0  0  0
 13  9  1  0  0  0  0
 14  9  1  0  0  0  0
M  END
$$$$
