butane_opt
 OpenBabel08242015423D

 14 13  0  0  0  0  0  0  0  0999 V2000
   -3.9446    0.2476    0.0572 C   0  0  0  0  0  0  0  0  0  0  0  0
   -2.7075   -0.5921   -0.0226 C   0  0  0  0  0  0  0  0  0  0  0  0
   -4.8724   -0.3570    0.2647 H   0  0  0  0  0  0  0  0  0  0  0  0
   -4.1025    0.9551   -0.8924 H   0  0  0  0  0  0  0  0  0  0  0  0
   -3.8733    0.8084    0.8479 H   0  0  0  0  0  0  0  0  0  0  0  0
   -1.4014    0.2143   -0.0189 C   0  0  0  0  0  0  0  0  0  0  0  0
   -2.7861   -1.3701   -0.9139 H   0  0  0  0  0  0  0  0  0  0  0  0
   -2.7291   -1.2239    0.8815 H   0  0  0  0  0  0  0  0  0  0  0  0
   -0.1540   -0.7149    0.0659 C   0  0  0  0  0  0  0  0  0  0  0  0
   -1.3650    0.9590    0.8543 H   0  0  0  0  0  0  0  0  0  0  0  0
   -1.2954    0.7804   -0.8573 H   0  0  0  0  0  0  0  0  0  0  0  0
   -0.1934   -1.4160    0.9914 H   0  0  0  0  0  0  0  0  0  0  0  0
    0.6531   -0.1605    0.0142 H   0  0  0  0  0  0  0  0  0  0  0  0
    0.0499   -1.3125   -0.7425 H   0  0  0  0  0  0  0  0  0  0  0  0
  1  3  1  0  0  0  0
  1  5  1  0  0  0  0
  2  6  1  0  0  0  0
  2  1  1  0  0  0  0
  2  8  1  0  0  0  0
  4  1  1  0  0  0  0
  6  9  1  0  0  0  0
  6 10  1  0  0  0  0
  7  2  1  0  0  0  0
  9 12  1  0  0  0  0
 11  6  1  0  0  0  0
 13  9  1  0  0  0  0
 14  9  1  0  0  0  0
M  END
$$$$
