14
butane_opt
C  -3.944630   0.247637   0.057160
C  -2.707455  -0.592130  -0.022578
H  -4.872423  -0.357002   0.264687
H  -4.102474   0.955083  -0.892367
H  -3.873322   0.808394   0.847929
C  -1.401444   0.214305  -0.018931
H  -2.786082  -1.370130  -0.913942
H  -2.729109  -1.223928   0.881509
C  -0.154037  -0.714949   0.065863
H  -1.365028   0.958976   0.854295
H  -1.295384   0.780403  -0.857316
H  -0.193379  -1.416044   0.991425
H   0.653134  -0.160487   0.014235
H   0.049854  -1.312478  -0.742510
