butane_opt
 OpenBabel08242015423D

 14 13  0  0  0  0  0  0  0  0999 V2000
   -3.9530    0.2479    0.0176 C   0  0  0  0  0  0  0  0  0  0  0  0
   -2.7198   -0.6062    0.0189 C   0  0  0  0  0  0  0  0  0  0  0  0
   -4.8299   -0.3295    0.1721 H   0  0  0  0  0  0  0  0  0  0  0  0
   -3.9929    1.0168   -0.9504 H   0  0  0  0  0  0  0  0  0  0  0  0
   -3.8757    0.8522    0.8340 H   0  0  0  0  0  0  0  0  0  0  0  0
   -1.3986    0.2098    0.0256 C   0  0  0  0  0  0  0  0  0  0  0  0
   -2.7335   -1.3227   -0.8639 H   0  0  0  0  0  0  0  0  0  0  0  0
   -2.7296   -1.2585    0.9977 H   0  0  0  0  0  0  0  0  0  0  0  0
   -0.1545   -0.6987    0.0431 C   0  0  0  0  0  0  0  0  0  0  0  0
   -1.3591    0.8301    0.8464 H   0  0  0  0  0  0  0  0  0  0  0  0
   -1.3462    0.8597   -0.8752 H   0  0  0  0  0  0  0  0  0  0  0  0
   -0.0643   -1.2659    0.8771 H   0  0  0  0  0  0  0  0  0  0  0  0
    0.6993   -0.1847    0.0084 H   0  0  0  0  0  0  0  0  0  0  0  0
   -0.0790   -1.5007   -0.8933 H   0  0  0  0  0  0  0  0  0  0  0  0
  1  2  1  0  0  0  0
  1  3  1  0  0  0  0
  1  5  1  0  0  0  0
  2  6  1  0  0  0  0
  2  8  1  0  0  0  0
  4  1  1  0  0  0  0
  6  9  1  0  0  0  0
  6 10  1  0  0  0  0
  7  2  1  0  0  0  0
  9 12  1  0  0  0  0
 11  6  1  0  0  0  0
 13  9  1  0  0  0  0
 14  9  1  0  0  0  0
M  END
$$$$
