14
butane_opt
C  -3.953977   0.289843  -0.000153
C  -2.699523  -0.644842   0.089444
H  -4.809146  -0.277544  -0.248569
H  -3.888669   0.786029  -0.836872
H  -4.053251   1.076526   0.942023
C  -1.396769   0.154481   0.006860
H  -2.679819  -1.327250  -0.726676
H  -2.698123  -1.225204   0.969394
C  -0.156915  -0.668021   0.013094
H  -1.304759   0.796885   0.818204
H  -1.529742   0.807954  -0.853583
H  -0.191686  -1.304774   0.924527
H   0.797420   0.014454   0.011574
H  -0.199367  -1.387551  -0.858854
