14
butane_opt
C  -3.944322   0.277726   0.010348
C  -2.669511  -0.627366   0.067276
H  -4.844218  -0.253730   0.012220
H  -4.004614   0.832145  -0.848213
H  -4.018777   0.999940   0.851596
C  -1.398139   0.153990  -0.015206
H  -2.707563  -1.338658  -0.769805
H  -2.635271  -1.318797   0.985416
C  -0.195226  -0.666294   0.020948
H  -1.332457   0.858707   0.873600
H  -1.430134   0.789561  -0.902263
H  -0.253751  -1.230434   0.871274
H   0.744085  -0.023085   0.243040
H  -0.067564  -1.438592  -0.876729
