butane_opt
 OpenBabel08242015423D

 14 13  0  0  0  0  0  0  0  0999 V2000
   -3.9195    0.2460    0.0640 C   0  0  0  0  0  0  0  0  0  0  0  0
   -2.6949   -0.5903   -0.0233 C   0  0  0  0  0  0  0  0  0  0  0  0
   -4.8088   -0.3181    0.0784 H   0  0  0  0  0  0  0  0  0  0  0  0
   -3.9646    0.7618   -0.7642 H   0  0  0  0  0  0  0  0  0  0  0  0
   -3.9618    0.9627    0.9723 H   0  0  0  0  0  0  0  0  0  0  0  0
   -1.4151    0.1905   -0.0259 C   0  0  0  0  0  0  0  0  0  0  0  0
   -2.7639   -1.3729   -0.9127 H   0  0  0  0  0  0  0  0  0  0  0  0
   -2.6700   -1.1688    0.8453 H   0  0  0  0  0  0  0  0  0  0  0  0
   -0.1639   -0.7036    0.0777 C   0  0  0  0  0  0  0  0  0  0  0  0
   -1.5361    0.8530    0.7963 H   0  0  0  0  0  0  0  0  0  0  0  0
   -1.3570    0.9113   -0.9754 H   0  0  0  0  0  0  0  0  0  0  0  0
   -0.1447   -1.4683    1.1028 H   0  0  0  0  0  0  0  0  0  0  0  0
    0.7205   -0.1047   -0.0639 H   0  0  0  0  0  0  0  0  0  0  0  0
   -0.2084   -1.2456   -0.7309 H   0  0  0  0  0  0  0  0  0  0  0  0
  1  3  1  0  0  0  0
  1  5  1  0  0  0  0
  2  1  1  0  0  0  0
  2  8  1  0  0  0  0
  4  1  1  0  0  0  0
  6  2  1  0  0  0  0
  6  9  1  0  0  0  0
  6 10  1  0  0  0  0
  7  2  1  0  0  0  0
  9 12  1  0  0  0  0
 11  6  1  0  0  0  0
 13  9  1  0  0  0  0
 14  9  1  0  0  0  0
M  END
$$$$
