butane_opt
 OpenBabel08242015423D

 14 13  0  0  0  0  0  0  0  0999 V2000
   -3.9443    0.2777    0.0103 C   0  0  0  0  0  0  0  0  0  0  0  0
   -2.6695   -0.6274    0.0673 C   0  0  0  0  0  0  0  0  0  0  0  0
   -4.8442   -0.2537    0.0122 H   0  0  0  0  0  0  0  0  0  0  0  0
   -4.0046    0.8321   -0.8482 H   0  0  0  0  0  0  0  0  0  0  0  0
   -4.0188    0.9999    0.8516 H   0  0  0  0  0  0  0  0  0  0  0  0
   -1.3981    0.1540   -0.0152 C   0  0  0  0  0  0  0  0  0  0  0  0
   -2.7076   -1.3387   -0.7698 H   0  0  0  0  0  0  0  0  0  0  0  0
   -2.6353   -1.3188    0.9854 H   0  0  0  0  0  0  0  0  0  0  0  0
   -0.1952   -0.6663    0.0209 C   0  0  0  0  0  0  0  0  0  0  0  0
   -1.3325    0.8587    0.8736 H   0  0  0  0  0  0  0  0  0  0  0  0
   -1.4301    0.7896   -0.9023 H   0  0  0  0  0  0  0  0  0  0  0  0
   -0.2538   -1.2304    0.8713 H   0  0  0  0  0  0  0  0  0  0  0  0
    0.7441   -0.0231    0.2430 H   0  0  0  0  0  0  0  0  0  0  0  0
   -0.0676   -1.4386   -0.8767 H   0  0  0  0  0  0  0  0  0  0  0  0
  1  3  1  0  0  0  0
  1  2  1  0  0  0  0
  1  5  1  0  0  0  0
  2  8  1  0  0  0  0
  4  1  1  0  0  0  0
  6  9  1  0  0  0  0
  6  2  1  0  0  0  0
  6 10  1  0  0  0  0
  7  2  1  0  0  0  0
  9 13  1  0  0  0  0
  9 12  1  0  0  0  0
 11  6  1  0  0  0  0
 14  9  1  0  0  0  0
M  END
$$$$
