14
butane_opt
C  -3.925978   0.247702   0.060463
C  -2.716810  -0.587238  -0.029957
H  -4.869975  -0.403797   0.298250
H  -3.993989   1.028938  -0.909445
H  -3.815945   0.716031   0.829815
C  -1.424314   0.197842  -0.020184
H  -2.763053  -1.286298  -0.910881
H  -2.630444  -1.220009   0.834577
C  -0.153703  -0.719203   0.067442
H  -1.455791   0.973659   0.932881
H  -1.424855   0.816980  -0.908191
H  -0.111519  -1.357353   0.968562
H   0.761670  -0.062766   0.103075
H  -0.074397  -1.343699  -0.745063
