butane_opt
 OpenBabel08242015423D

 14 13  0  0  0  0  0  0  0  0999 V2000
   -3.9104    0.2577    0.0486 C   0  0  0  0  0  0  0  0  0  0  0  0
   -2.6990   -0.6102    0.0272 C   0  0  0  0  0  0  0  0  0  0  0  0
   -4.8344   -0.3702   -0.1033 H   0  0  0  0  0  0  0  0  0  0  0  0
   -3.9682    0.6886   -0.6995 H   0  0  0  0  0  0  0  0  0  0  0  0
   -3.9288    1.0436    0.9288 H   0  0  0  0  0  0  0  0  0  0  0  0
   -1.4101    0.2118   -0.0361 C   0  0  0  0  0  0  0  0  0  0  0  0
   -2.7247   -1.3322   -0.8674 H   0  0  0  0  0  0  0  0  0  0  0  0
   -2.7002   -1.1913    0.8836 H   0  0  0  0  0  0  0  0  0  0  0  0
   -0.1770   -0.7072    0.0560 C   0  0  0  0  0  0  0  0  0  0  0  0
   -1.4930    0.8942    0.8025 H   0  0  0  0  0  0  0  0  0  0  0  0
   -1.4349    0.7985   -0.9552 H   0  0  0  0  0  0  0  0  0  0  0  0
   -0.2029   -1.4492    1.0654 H   0  0  0  0  0  0  0  0  0  0  0  0
    0.7175   -0.1136   -0.0201 H   0  0  0  0  0  0  0  0  0  0  0  0
   -0.0940   -1.2735   -0.7226 H   0  0  0  0  0  0  0  0  0  0  0  0
  1  5  1  0  0  0  0
  2  1  1  0  0  0  0
  2  8  1  0  0  0  0
  3  1  1  0  0  0  0
  4  1  1  0  0  0  0
  6  2  1  0  0  0  0
  6  9  1  0  0  0  0
  6 10  1  0  0  0  0
  7  2  1  0  0  0  0
  9 12  1  0  0  0  0
 11  6  1  0  0  0  0
 13  9  1  0  0  0  0
 14  9  1  0  0  0  0
M  END
$$$$
