14
butane_opt
C  -3.941844   0.254951  -0.021631
C  -2.719541  -0.598314   0.061111
H  -4.859775  -0.310798   0.043322
H  -3.971629   0.804723  -0.900254
H  -3.946679   0.868246   0.833812
C  -1.406178   0.209940   0.062737
H  -2.747877  -1.318865  -0.813828
H  -2.851969  -1.238819   0.965914
C  -0.133257  -0.709646   0.012369
H  -1.303757   0.944211   0.905850
H  -1.459280   0.843378  -0.839677
H  -0.016691  -1.422854   0.934416
H   0.727029  -0.183715  -0.207310
H  -0.180041  -1.343323  -0.842875
