butane_opt
 OpenBabel08242015423D

 14 13  0  0  0  0  0  0  0  0999 V2000
   -3.9418    0.2550   -0.0216 C   0  0  0  0  0  0  0  0  0  0  0  0
   -2.7195   -0.5983    0.0611 C   0  0  0  0  0  0  0  0  0  0  0  0
   -4.8598   -0.3108    0.0433 H   0  0  0  0  0  0  0  0  0  0  0  0
   -3.9716    0.8047   -0.9003 H   0  0  0  0  0  0  0  0  0  0  0  0
   -3.9467    0.8682    0.8338 H   0  0  0  0  0  0  0  0  0  0  0  0
   -1.4062    0.2099    0.0627 C   0  0  0  0  0  0  0  0  0  0  0  0
   -2.7479   -1.3189   -0.8138 H   0  0  0  0  0  0  0  0  0  0  0  0
   -2.8520   -1.2388    0.9659 H   0  0  0  0  0  0  0  0  0  0  0  0
   -0.1333   -0.7096    0.0124 C   0  0  0  0  0  0  0  0  0  0  0  0
   -1.3038    0.9442    0.9059 H   0  0  0  0  0  0  0  0  0  0  0  0
   -1.4593    0.8434   -0.8397 H   0  0  0  0  0  0  0  0  0  0  0  0
   -0.0167   -1.4229    0.9344 H   0  0  0  0  0  0  0  0  0  0  0  0
    0.7270   -0.1837   -0.2073 H   0  0  0  0  0  0  0  0  0  0  0  0
   -0.1800   -1.3433   -0.8429 H   0  0  0  0  0  0  0  0  0  0  0  0
  1  3  1  0  0  0  0
  1  2  1  0  0  0  0
  1  5  1  0  0  0  0
  2  6  1  0  0  0  0
  2  8  1  0  0  0  0
  4  1  1  0  0  0  0
  6 10  1  0  0  0  0
  7  2  1  0  0  0  0
  9  6  1  0  0  0  0
  9 12  1  0  0  0  0
 11  6  1  0  0  0  0
 13  9  1  0  0  0  0
 14  9  1  0  0  0  0
M  END
$$$$
