14
butane_opt
C  -3.937844   0.257502   0.068317
C  -2.689863  -0.603212  -0.031716
H  -4.905119  -0.355392   0.292320
H  -4.133313   0.996646  -0.887156
H  -3.716144   0.856768   0.901531
C  -1.416438   0.180419  -0.043163
H  -2.715067  -1.373229  -0.954349
H  -2.677127  -1.173851   0.813358
C  -0.177462  -0.708424   0.084825
H  -1.407029   0.928184   0.848024
H  -1.299163   0.823729  -0.897303
H  -0.227924  -1.359185   1.014525
H   0.790828  -0.071152   0.081536
H  -0.067056  -1.261226  -0.722494
