butane_opt
 OpenBabel08242015423D

 14 13  0  0  0  0  0  0  0  0999 V2000
   -3.9727    0.2575   -0.0312 C   0  0  0  0  0  0  0  0  0  0  0  0
   -2.6929   -0.6092    0.1059 C   0  0  0  0  0  0  0  0  0  0  0  0
   -4.9057   -0.3531    0.0315 H   0  0  0  0  0  0  0  0  0  0  0  0
   -3.9473    0.8964   -0.9536 H   0  0  0  0  0  0  0  0  0  0  0  0
   -3.9832    0.8409    0.7790 H   0  0  0  0  0  0  0  0  0  0  0  0
   -1.3993    0.1984    0.0269 C   0  0  0  0  0  0  0  0  0  0  0  0
   -2.7047   -1.1517   -0.6578 H   0  0  0  0  0  0  0  0  0  0  0  0
   -2.7713   -1.2985    1.0842 H   0  0  0  0  0  0  0  0  0  0  0  0
   -0.1369   -0.6953   -0.0180 C   0  0  0  0  0  0  0  0  0  0  0  0
   -1.4062    0.9204    0.9086 H   0  0  0  0  0  0  0  0  0  0  0  0
   -1.3689    0.7294   -0.7945 H   0  0  0  0  0  0  0  0  0  0  0  0
   -0.1302   -1.1324    0.7844 H   0  0  0  0  0  0  0  0  0  0  0  0
    0.6913   -0.1268    0.2410 H   0  0  0  0  0  0  0  0  0  0  0  0
   -0.0702   -1.6329   -1.0191 H   0  0  0  0  0  0  0  0  0  0  0  0
  1  3  1  0  0  0  0
  1  2  1  0  0  0  0
  1  5  1  0  0  0  0
  2  8  1  0  0  0  0
  4  1  1  0  0  0  0
  6  2  1  0  0  0  0
  6 10  1  0  0  0  0
  7  2  1  0  0  0  0
  9  6  1  0  0  0  0
  9 13  1  0  0  0  0
  9 12  1  0  0  0  0
 11  6  1  0  0  0  0
 14  9  1  0  0  0  0
M  END
$$$$
