butane_opt
 OpenBabel08242015423D

 14 13  0  0  0  0  0  0  0  0999 V2000
   -3.9554    0.2747    0.0441 C   0  0  0  0  0  0  0  0  0  0  0  0
   -2.7034   -0.6257    0.0012 C   0  0  0  0  0  0  0  0  0  0  0  0
   -4.8643   -0.3339   -0.0029 H   0  0  0  0  0  0  0  0  0  0  0  0
   -4.0067    0.8108   -0.8027 H   0  0  0  0  0  0  0  0  0  0  0  0
   -3.9666    1.0317    0.9335 H   0  0  0  0  0  0  0  0  0  0  0  0
   -1.3969    0.1761   -0.0067 C   0  0  0  0  0  0  0  0  0  0  0  0
   -2.7825   -1.2766   -0.8262 H   0  0  0  0  0  0  0  0  0  0  0  0
   -2.6796   -1.2207    0.8798 H   0  0  0  0  0  0  0  0  0  0  0  0
   -0.1566   -0.6861    0.0596 C   0  0  0  0  0  0  0  0  0  0  0  0
   -1.3883    0.8153    0.8251 H   0  0  0  0  0  0  0  0  0  0  0  0
   -1.3238    0.8186   -0.9262 H   0  0  0  0  0  0  0  0  0  0  0  0
   -0.1045   -1.4055    1.0190 H   0  0  0  0  0  0  0  0  0  0  0  0
    0.7771   -0.0898   -0.0762 H   0  0  0  0  0  0  0  0  0  0  0  0
   -0.1429   -1.2858   -0.7530 H   0  0  0  0  0  0  0  0  0  0  0  0
  1  5  1  0  0  0  0
  2  1  1  0  0  0  0
  2  8  1  0  0  0  0
  3  1  1  0  0  0  0
  4  1  1  0  0  0  0
  6  2  1  0  0  0  0
  6  9  1  0  0  0  0
  6 10  1  0  0  0  0
  7  2  1  0  0  0  0
  9 12  1  0  0  0  0
 11  6  1  0  0  0  0
 13  9  1  0  0  0  0
 14  9  1  0  0  0  0
M  END
$$$$
