butane_opt
 OpenBabel08242015423D

 14 13  0  0  0  0  0  0  0  0999 V2000
   -3.9610    0.2768    0.0489 C   0  0  0  0  0  0  0  0  0  0  0  0
   -2.6938   -0.6525    0.0123 C   0  0  0  0  0  0  0  0  0  0  0  0
   -4.8126   -0.2127   -0.1831 H   0  0  0  0  0  0  0  0  0  0  0  0
   -4.0104    0.6775   -0.6686 H   0  0  0  0  0  0  0  0  0  0  0  0
   -4.0746    1.2091    1.1190 H   0  0  0  0  0  0  0  0  0  0  0  0
   -1.3785    0.1795   -0.0492 C   0  0  0  0  0  0  0  0  0  0  0  0
   -2.7685   -1.2836   -0.8010 H   0  0  0  0  0  0  0  0  0  0  0  0
   -2.6567   -1.3445    0.8889 H   0  0  0  0  0  0  0  0  0  0  0  0
   -0.1585   -0.6808    0.0777 C   0  0  0  0  0  0  0  0  0  0  0  0
   -1.4469    0.7849    0.7405 H   0  0  0  0  0  0  0  0  0  0  0  0
   -1.3860    0.8687   -0.9868 H   0  0  0  0  0  0  0  0  0  0  0  0
   -0.1289   -1.3127    0.9784 H   0  0  0  0  0  0  0  0  0  0  0  0
    0.7479   -0.0890    0.0299 H   0  0  0  0  0  0  0  0  0  0  0  0
   -0.1884   -1.2374   -0.7236 H   0  0  0  0  0  0  0  0  0  0  0  0
  1  5  1  0  0  0  0
  2  1  1  0  0  0  0
  2  8  1  0  0  0  0
  3  1  1  0  0  0  0
  4  1  1  0  0  0  0
  6  2  1  0  0  0  0
  6  9  1  0  0  0  0
  6 10  1  0  0  0  0
  7  2  1  0  0  0  0
  9 12  1  0  0  0  0
 11  6  1  0  0  0  0
 13  9  1  0  0  0  0
 14  9  1  0  0  0  0
M  END
$$$$
