14
butane_opt
C  -3.929521   0.271173   0.019504
C  -2.701883  -0.622506   0.039073
H  -4.852745  -0.313714   0.152530
H  -4.007029   1.016486  -0.940551
H  -4.042664   0.876463   0.808584
C  -1.413602   0.164637   0.018208
H  -2.638454  -1.303597  -0.835864
H  -2.704664  -1.306593   0.948801
C  -0.160412  -0.677454   0.034513
H  -1.443778   0.806059   0.810033
H  -1.365302   0.811069  -0.867832
H  -0.161203  -1.168122   0.862751
H   0.806563  -0.031209   0.105954
H  -0.149590  -1.486568  -0.956039
