butane_opt
 OpenBabel08242015423D

 14 13  0  0  0  0  0  0  0  0999 V2000
   -3.9295    0.2712    0.0195 C   0  0  0  0  0  0  0  0  0  0  0  0
   -2.7019   -0.6225    0.0391 C   0  0  0  0  0  0  0  0  0  0  0  0
   -4.8527   -0.3137    0.1525 H   0  0  0  0  0  0  0  0  0  0  0  0
   -4.0070    1.0165   -0.9406 H   0  0  0  0  0  0  0  0  0  0  0  0
   -4.0427    0.8765    0.8086 H   0  0  0  0  0  0  0  0  0  0  0  0
   -1.4136    0.1646    0.0182 C   0  0  0  0  0  0  0  0  0  0  0  0
   -2.6385   -1.3036   -0.8359 H   0  0  0  0  0  0  0  0  0  0  0  0
   -2.7047   -1.3066    0.9488 H   0  0  0  0  0  0  0  0  0  0  0  0
   -0.1604   -0.6775    0.0345 C   0  0  0  0  0  0  0  0  0  0  0  0
   -1.4438    0.8061    0.8100 H   0  0  0  0  0  0  0  0  0  0  0  0
   -1.3653    0.8111   -0.8678 H   0  0  0  0  0  0  0  0  0  0  0  0
   -0.1612   -1.1681    0.8628 H   0  0  0  0  0  0  0  0  0  0  0  0
    0.8066   -0.0312    0.1060 H   0  0  0  0  0  0  0  0  0  0  0  0
   -0.1496   -1.4866   -0.9560 H   0  0  0  0  0  0  0  0  0  0  0  0
  1  2  1  0  0  0  0
  1  3  1  0  0  0  0
  1  5  1  0  0  0  0
  2  8  1  0  0  0  0
  4  1  1  0  0  0  0
  6  9  1  0  0  0  0
  6  2  1  0  0  0  0
  6 10  1  0  0  0  0
  7  2  1  0  0  0  0
  9 13  1  0  0  0  0
  9 12  1  0  0  0  0
 11  6  1  0  0  0  0
 14  9  1  0  0  0  0
M  END
$$$$
