14
butane_opt
C  -3.931410   0.253098   0.076227
C  -2.698724  -0.585063  -0.027218
H  -4.837446  -0.398728   0.237343
H  -4.012716   0.970279  -0.865240
H  -3.865702   0.833127   0.873308
C  -1.422722   0.181267  -0.035192
H  -2.836558  -1.428405  -0.982852
H  -2.673791  -1.111361   0.760718
C  -0.157500  -0.699660   0.089077
H  -1.499753   0.878719   0.786581
H  -1.372914   0.806109  -0.959123
H  -0.081472  -1.445405   1.068332
H   0.805598  -0.054980   0.040058
H  -0.137560  -1.301022  -0.748300
