butane_opt
 OpenBabel08242015423D

 14 13  0  0  0  0  0  0  0  0999 V2000
   -3.9314    0.2531    0.0762 C   0  0  0  0  0  0  0  0  0  0  0  0
   -2.6987   -0.5851   -0.0272 C   0  0  0  0  0  0  0  0  0  0  0  0
   -4.8374   -0.3987    0.2373 H   0  0  0  0  0  0  0  0  0  0  0  0
   -4.0127    0.9703   -0.8652 H   0  0  0  0  0  0  0  0  0  0  0  0
   -3.8657    0.8331    0.8733 H   0  0  0  0  0  0  0  0  0  0  0  0
   -1.4227    0.1813   -0.0352 C   0  0  0  0  0  0  0  0  0  0  0  0
   -2.8366   -1.4284   -0.9829 H   0  0  0  0  0  0  0  0  0  0  0  0
   -2.6738   -1.1114    0.7607 H   0  0  0  0  0  0  0  0  0  0  0  0
   -0.1575   -0.6997    0.0891 C   0  0  0  0  0  0  0  0  0  0  0  0
   -1.4998    0.8787    0.7866 H   0  0  0  0  0  0  0  0  0  0  0  0
   -1.3729    0.8061   -0.9591 H   0  0  0  0  0  0  0  0  0  0  0  0
   -0.0815   -1.4454    1.0683 H   0  0  0  0  0  0  0  0  0  0  0  0
    0.8056   -0.0550    0.0401 H   0  0  0  0  0  0  0  0  0  0  0  0
   -0.1376   -1.3010   -0.7483 H   0  0  0  0  0  0  0  0  0  0  0  0
  1  3  1  0  0  0  0
  1  5  1  0  0  0  0
  2  1  1  0  0  0  0
  2  8  1  0  0  0  0
  4  1  1  0  0  0  0
  6  2  1  0  0  0  0
  6  9  1  0  0  0  0
  6 10  1  0  0  0  0
  7  2  1  0  0  0  0
  9 12  1  0  0  0  0
 11  6  1  0  0  0  0
 13  9  1  0  0  0  0
 14  9  1  0  0  0  0
M  END
$$$$
