butane_opt
 OpenBabel08242015423D

 14 13  0  0  0  0  0  0  0  0999 V2000
   -3.9446    0.2389    0.0774 C   0  0  0  0  0  0  0  0  0  0  0  0
   -2.7135   -0.5819   -0.0033 C   0  0  0  0  0  0  0  0  0  0  0  0
   -4.8673   -0.3776    0.0885 H   0  0  0  0  0  0  0  0  0  0  0  0
   -3.9508    0.7940   -0.7310 H   0  0  0  0  0  0  0  0  0  0  0  0
   -3.9541    0.9509    0.9798 H   0  0  0  0  0  0  0  0  0  0  0  0
   -1.4011    0.2068   -0.0930 C   0  0  0  0  0  0  0  0  0  0  0  0
   -2.8394   -1.2520   -0.8906 H   0  0  0  0  0  0  0  0  0  0  0  0
   -2.6129   -1.1766    0.8566 H   0  0  0  0  0  0  0  0  0  0  0  0
   -0.1417   -0.7070    0.1024 C   0  0  0  0  0  0  0  0  0  0  0  0
   -1.4629    0.8174    0.7152 H   0  0  0  0  0  0  0  0  0  0  0  0
   -1.4107    0.8449   -0.9811 H   0  0  0  0  0  0  0  0  0  0  0  0
   -0.2856   -1.2744    0.9647 H   0  0  0  0  0  0  0  0  0  0  0  0
    0.7576   -0.1619    0.2608 H   0  0  0  0  0  0  0  0  0  0  0  0
    0.0259   -1.5343   -0.8347 H   0  0  0  0  0  0  0  0  0  0  0  0
  1  3  1  0  0  0  0
  1  5  1  0  0  0  0
  2  1  1  0  0  0  0
  2  8  1  0  0  0  0
  4  1  1  0  0  0  0
  6  2  1  0  0  0  0
  6  9  1  0  0  0  0
  6 10  1  0  0  0  0
  7  2  1  0  0  0  0
  9 13  1  0  0  0  0
  9 12  1  0  0  0  0
 11  6  1  0  0  0  0
 14  9  1  0  0  0  0
M  END
$$$$
