14
butane_opt
C  -3.973537   0.276932  -0.006060
C  -2.697726  -0.644264   0.050098
H  -4.771426  -0.239597  -0.021146
H  -3.942134   0.912586  -0.918074
H  -4.065138   0.931095   0.877736
C  -1.398279   0.186498   0.071515
H  -2.630065  -1.425475  -0.865539
H  -2.773055  -1.252862   0.941474
C  -0.149149  -0.687065   0.000555
H  -1.305509   0.895058   0.895332
H  -1.413817   0.804164  -0.814692
H  -0.065843  -1.428393   1.009728
H   0.787589  -0.085402  -0.283873
H  -0.227373  -1.145479  -0.751449
