14
butane_opt
C  -3.944610   0.238927   0.077444
C  -2.713456  -0.581874  -0.003271
H  -4.867273  -0.377622   0.088455
H  -3.950767   0.794018  -0.730959
H  -3.954115   0.950938   0.979786
C  -1.401114   0.206798  -0.092979
H  -2.839386  -1.251952  -0.890641
H  -2.612940  -1.176636   0.856614
C  -0.141687  -0.706991   0.102440
H  -1.462919   0.817414   0.715156
H  -1.410675   0.844917  -0.981137
H  -0.285570  -1.274423   0.964681
H   0.757633  -0.161881   0.260773
H   0.025948  -1.534275  -0.834705
