14
butane_opt
C  -3.929920   0.292654   0.049181
C  -2.668904  -0.650757  -0.013935
H  -4.889435  -0.334261  -0.003831
H  -4.048349   0.829962  -0.804279
H  -3.905456   1.019504   0.970627
C  -1.414213   0.167450  -0.004148
H  -2.632370  -1.340076  -0.831933
H  -2.728278  -1.263307   0.847788
C  -0.189124  -0.669465   0.051704
H  -1.420130   0.821408   0.874629
H  -1.351910   0.789924  -0.877620
H  -0.123287  -1.433663   1.063657
H   0.729554  -0.109706  -0.140217
H  -0.232673  -1.117569  -0.630463
