butane_opt
 OpenBabel08242015423D

 14 13  0  0  0  0  0  0  0  0999 V2000
   -3.9296    0.2489    0.0583 C   0  0  0  0  0  0  0  0  0  0  0  0
   -2.6889   -0.5860   -0.0160 C   0  0  0  0  0  0  0  0  0  0  0  0
   -4.9065   -0.4189   -0.0137 H   0  0  0  0  0  0  0  0  0  0  0  0
   -3.9970    0.8005   -0.7952 H   0  0  0  0  0  0  0  0  0  0  0  0
   -3.9155    1.0072    0.9793 H   0  0  0  0  0  0  0  0  0  0  0  0
   -1.4109    0.1893   -0.0183 C   0  0  0  0  0  0  0  0  0  0  0  0
   -2.7388   -1.3109   -0.9503 H   0  0  0  0  0  0  0  0  0  0  0  0
   -2.5765   -1.2158    0.8957 H   0  0  0  0  0  0  0  0  0  0  0  0
   -0.1791   -0.6943    0.0718 C   0  0  0  0  0  0  0  0  0  0  0  0
   -1.4518    0.8342    0.8277 H   0  0  0  0  0  0  0  0  0  0  0  0
   -1.3728    0.8137   -0.8844 H   0  0  0  0  0  0  0  0  0  0  0  0
   -0.1110   -1.5469    1.0853 H   0  0  0  0  0  0  0  0  0  0  0  0
    0.7510   -0.1416   -0.1214 H   0  0  0  0  0  0  0  0  0  0  0  0
   -0.1830   -1.1923   -0.7168 H   0  0  0  0  0  0  0  0  0  0  0  0
  1  5  1  0  0  0  0
  2  1  1  0  0  0  0
  2  8  1  0  0  0  0
  3  1  1  0  0  0  0
  4  1  1  0  0  0  0
  6  2  1  0  0  0  0
  6  9  1  0  0  0  0
  6 10  1  0  0  0  0
  7  2  1  0  0  0  0
  9 12  1  0  0  0  0
 11  6  1  0  0  0  0
 13  9  1  0  0  0  0
 14  9  1  0  0  0  0
M  END
$$$$
