butane_opt
 OpenBabel08242015423D

 14 13  0  0  0  0  0  0  0  0999 V2000
   -3.9410    0.2475   -0.0325 C   0  0  0  0  0  0  0  0  0  0  0  0
   -2.7058   -0.6078    0.1296 C   0  0  0  0  0  0  0  0  0  0  0  0
   -4.8542   -0.3327   -0.1524 H   0  0  0  0  0  0  0  0  0  0  0  0
   -3.8894    0.9760   -0.9759 H   0  0  0  0  0  0  0  0  0  0  0  0
   -4.1404    0.9396    0.8361 H   0  0  0  0  0  0  0  0  0  0  0  0
   -1.3876    0.1970    0.0552 C   0  0  0  0  0  0  0  0  0  0  0  0
   -2.7008   -1.2935   -0.7093 H   0  0  0  0  0  0  0  0  0  0  0  0
   -2.8647   -1.2627    1.0020 H   0  0  0  0  0  0  0  0  0  0  0  0
   -0.1473   -0.6976   -0.0305 C   0  0  0  0  0  0  0  0  0  0  0  0
   -1.3290    0.8865    0.9191 H   0  0  0  0  0  0  0  0  0  0  0  0
   -1.4880    0.8402   -0.8404 H   0  0  0  0  0  0  0  0  0  0  0  0
   -0.1613   -1.2208    0.7871 H   0  0  0  0  0  0  0  0  0  0  0  0
    0.7199   -0.1669    0.0628 H   0  0  0  0  0  0  0  0  0  0  0  0
   -0.1171   -1.5137   -0.9599 H   0  0  0  0  0  0  0  0  0  0  0  0
  1  2  1  0  0  0  0
  1  5  1  0  0  0  0
  2  8  1  0  0  0  0
  3  1  1  0  0  0  0
  4  1  1  0  0  0  0
  6  2  1  0  0  0  0
  6 10  1  0  0  0  0
  7  2  1  0  0  0  0
  9  6  1  0  0  0  0
  9 13  1  0  0  0  0
  9 12  1  0  0  0  0
 11  6  1  0  0  0  0
 14  9  1  0  0  0  0
M  END
$$$$
