14
butane_opt
C  -3.941042   0.247510  -0.032540
C  -2.705848  -0.607834   0.129606
H  -4.854227  -0.332683  -0.152412
H  -3.889407   0.975971  -0.975938
H  -4.140364   0.939630   0.836133
C  -1.387648   0.196963   0.055234
H  -2.700765  -1.293475  -0.709347
H  -2.864658  -1.262708   1.002004
C  -0.147340  -0.697585  -0.030544
H  -1.329007   0.886493   0.919103
H  -1.487963   0.840224  -0.840379
H  -0.161350  -1.220787   0.787069
H   0.719894  -0.166939   0.062796
H  -0.117081  -1.513724  -0.959947
