butane_opt
 OpenBabel08242015423D

 14 13  0  0  0  0  0  0  0  0999 V2000
   -3.9692    0.2634    0.0485 C   0  0  0  0  0  0  0  0  0  0  0  0
   -2.7059   -0.6115   -0.0057 C   0  0  0  0  0  0  0  0  0  0  0  0
   -4.8799   -0.3092    0.0280 H   0  0  0  0  0  0  0  0  0  0  0  0
   -3.9570    0.7340   -0.7912 H   0  0  0  0  0  0  0  0  0  0  0  0
   -4.0319    1.0029    0.9517 H   0  0  0  0  0  0  0  0  0  0  0  0
   -1.3866    0.1982   -0.0148 C   0  0  0  0  0  0  0  0  0  0  0  0
   -2.7881   -1.3428   -0.8998 H   0  0  0  0  0  0  0  0  0  0  0  0
   -2.6301   -1.2113    0.8561 H   0  0  0  0  0  0  0  0  0  0  0  0
   -0.1531   -0.6943    0.0652 C   0  0  0  0  0  0  0  0  0  0  0  0
   -1.4056    0.8679    0.8225 H   0  0  0  0  0  0  0  0  0  0  0  0
   -1.3867    0.7454   -0.8749 H   0  0  0  0  0  0  0  0  0  0  0  0
   -0.0047   -1.5032    1.0770 H   0  0  0  0  0  0  0  0  0  0  0  0
    0.7549   -0.1467   -0.1727 H   0  0  0  0  0  0  0  0  0  0  0  0
   -0.1210   -1.1646   -0.6424 H   0  0  0  0  0  0  0  0  0  0  0  0
  1  5  1  0  0  0  0
  2  1  1  0  0  0  0
  2  8  1  0  0  0  0
  3  1  1  0  0  0  0
  4  1  1  0  0  0  0
  6  2  1  0  0  0  0
  6  9  1  0  0  0  0
  6 10  1  0  0  0  0
  7  2  1  0  0  0  0
  9 12  1  0  0  0  0
 11  6  1  0  0  0  0
 13  9  1  0  0  0  0
 14  9  1  0  0  0  0
M  END
$$$$
