butane_opt
 OpenBabel08242015423D

 14 13  0  0  0  0  0  0  0  0999 V2000
   -3.9401    0.2536    0.0502 C   0  0  0  0  0  0  0  0  0  0  0  0
   -2.7055   -0.6079   -0.0022 C   0  0  0  0  0  0  0  0  0  0  0  0
   -4.8671   -0.3339    0.1185 H   0  0  0  0  0  0  0  0  0  0  0  0
   -4.0467    0.8635   -0.8325 H   0  0  0  0  0  0  0  0  0  0  0  0
   -3.9335    0.9387    0.9192 H   0  0  0  0  0  0  0  0  0  0  0  0
   -1.4057    0.1989   -0.0226 C   0  0  0  0  0  0  0  0  0  0  0  0
   -2.7772   -1.2929   -0.8686 H   0  0  0  0  0  0  0  0  0  0  0  0
   -2.7054   -1.2206    0.8768 H   0  0  0  0  0  0  0  0  0  0  0  0
   -0.1570   -0.7075    0.0546 C   0  0  0  0  0  0  0  0  0  0  0  0
   -1.3877    0.8988    0.8239 H   0  0  0  0  0  0  0  0  0  0  0  0
   -1.3318    0.8482   -0.9184 H   0  0  0  0  0  0  0  0  0  0  0  0
   -0.1527   -1.3779    1.0293 H   0  0  0  0  0  0  0  0  0  0  0  0
    0.7525   -0.1222    0.0992 H   0  0  0  0  0  0  0  0  0  0  0  0
   -0.0649   -1.3296   -0.7618 H   0  0  0  0  0  0  0  0  0  0  0  0
  1  3  1  0  0  0  0
  1  5  1  0  0  0  0
  2  1  1  0  0  0  0
  2  8  1  0  0  0  0
  4  1  1  0  0  0  0
  6  2  1  0  0  0  0
  6  9  1  0  0  0  0
  6 10  1  0  0  0  0
  7  2  1  0  0  0  0
  9 13  1  0  0  0  0
  9 12  1  0  0  0  0
 11  6  1  0  0  0  0
 14  9  1  0  0  0  0
M  END
$$$$
