butane_opt
 OpenBabel08242015423D

 14 13  0  0  0  0  0  0  0  0999 V2000
   -3.9295    0.2799    0.0012 C   0  0  0  0  0  0  0  0  0  0  0  0
   -2.6835   -0.6241    0.0489 C   0  0  0  0  0  0  0  0  0  0  0  0
   -4.8107   -0.2816    0.1428 H   0  0  0  0  0  0  0  0  0  0  0  0
   -4.0083    0.9381   -0.9452 H   0  0  0  0  0  0  0  0  0  0  0  0
   -3.9544    0.7888    0.7422 H   0  0  0  0  0  0  0  0  0  0  0  0
   -1.3881    0.1690    0.0272 C   0  0  0  0  0  0  0  0  0  0  0  0
   -2.6416   -1.1856   -0.7103 H   0  0  0  0  0  0  0  0  0  0  0  0
   -2.7415   -1.3424    1.0114 H   0  0  0  0  0  0  0  0  0  0  0  0
   -0.2099   -0.6807    0.0179 C   0  0  0  0  0  0  0  0  0  0  0  0
   -1.3853    0.8655    0.8942 H   0  0  0  0  0  0  0  0  0  0  0  0
   -1.3855    0.7790   -0.8020 H   0  0  0  0  0  0  0  0  0  0  0  0
   -0.2074   -1.1370    0.7639 H   0  0  0  0  0  0  0  0  0  0  0  0
    0.7299   -0.0746    0.1231 H   0  0  0  0  0  0  0  0  0  0  0  0
   -0.0960   -1.5461   -0.9554 H   0  0  0  0  0  0  0  0  0  0  0  0
  1  2  1  0  0  0  0
  1  3  1  0  0  0  0
  1  5  1  0  0  0  0
  2  8  1  0  0  0  0
  4  1  1  0  0  0  0
  6  2  1  0  0  0  0
  6 10  1  0  0  0  0
  7  2  1  0  0  0  0
  9  6  1  0  0  0  0
  9 13  1  0  0  0  0
  9 12  1  0  0  0  0
 11  6  1  0  0  0  0
 14  9  1  0  0  0  0
M  END
$$$$
