14
butane_opt
C  -3.950851   0.279781   0.035512
C  -2.690644  -0.621258   0.007429
H  -4.877391  -0.320108   0.017584
H  -3.978665   0.774574  -0.788221
H  -3.945623   1.046950   0.946864
C  -1.397526   0.166652  -0.005285
H  -2.736586  -1.314902  -0.864078
H  -2.699797  -1.274344   0.921912
C  -0.170287  -0.682222   0.051653
H  -1.364399   0.808992   0.842687
H  -1.375785   0.806850  -0.917170
H  -0.140320  -1.389034   1.021987
H   0.754121  -0.093066  -0.051650
H  -0.155113  -1.226440  -0.738335
