14
butane_opt
C  -3.934721   0.262018  -0.017618
C  -2.685655  -0.588498   0.077390
H  -4.871561  -0.383619   0.116686
H  -3.977040   1.028603  -1.061924
H  -3.878622   0.710375   0.681529
C  -1.407696   0.183381   0.054240
H  -2.655594  -1.256120  -0.709898
H  -2.789797  -1.251024   0.990053
C  -0.189693  -0.703391  -0.015183
H  -1.317648   0.971005   0.994450
H  -1.426264   0.670251  -0.718715
H  -0.136967  -1.281919   0.835911
H   0.756240  -0.037850   0.023724
H  -0.119875  -1.473775  -0.927982
