14
butane_opt
C  -3.943741   0.268660   0.034563
C  -2.688295  -0.618138   0.026455
H  -4.887545  -0.338407  -0.145463
H  -3.910092   0.631041  -0.723964
H  -3.902943   1.105609   1.053827
C  -1.419864   0.180088  -0.030416
H  -2.726660  -1.264454  -0.807272
H  -2.708371  -1.272854   0.937151
C  -0.158730  -0.691527   0.058466
H  -1.468495   0.889076   0.815750
H  -1.333059   0.874530  -0.941401
H  -0.122064  -1.396617   1.000353
H   0.699008  -0.136663  -0.042125
H  -0.138716  -1.245803  -0.754708
