butane_opt
 OpenBabel08242015423D

 14 13  0  0  0  0  0  0  0  0999 V2000
   -3.9437    0.2687    0.0346 C   0  0  0  0  0  0  0  0  0  0  0  0
   -2.6883   -0.6181    0.0265 C   0  0  0  0  0  0  0  0  0  0  0  0
   -4.8875   -0.3384   -0.1455 H   0  0  0  0  0  0  0  0  0  0  0  0
   -3.9101    0.6310   -0.7240 H   0  0  0  0  0  0  0  0  0  0  0  0
   -3.9029    1.1056    1.0538 H   0  0  0  0  0  0  0  0  0  0  0  0
   -1.4199    0.1801   -0.0304 C   0  0  0  0  0  0  0  0  0  0  0  0
   -2.7267   -1.2645   -0.8073 H   0  0  0  0  0  0  0  0  0  0  0  0
   -2.7084   -1.2729    0.9372 H   0  0  0  0  0  0  0  0  0  0  0  0
   -0.1587   -0.6915    0.0585 C   0  0  0  0  0  0  0  0  0  0  0  0
   -1.4685    0.8891    0.8157 H   0  0  0  0  0  0  0  0  0  0  0  0
   -1.3331    0.8745   -0.9414 H   0  0  0  0  0  0  0  0  0  0  0  0
   -0.1221   -1.3966    1.0004 H   0  0  0  0  0  0  0  0  0  0  0  0
    0.6990   -0.1367   -0.0421 H   0  0  0  0  0  0  0  0  0  0  0  0
   -0.1387   -1.2458   -0.7547 H   0  0  0  0  0  0  0  0  0  0  0  0
  1  5  1  0  0  0  0
  2  1  1  0  0  0  0
  2  8  1  0  0  0  0
  3  1  1  0  0  0  0
  4  1  1  0  0  0  0
  6  2  1  0  0  0  0
  6  9  1  0  0  0  0
  6 10  1  0  0  0  0
  7  2  1  0  0  0  0
  9 12  1  0  0  0  0
 11  6  1  0  0  0  0
 13  9  1  0  0  0  0
 14  9  1  0  0  0  0
M  END
$$$$
