14
butane_opt
C  -3.929466   0.279909   0.001212
C  -2.683540  -0.624064   0.048920
H  -4.810747  -0.281627   0.142791
H  -4.008338   0.938052  -0.945248
H  -3.954377   0.788831   0.742242
C  -1.388149   0.168961   0.027219
H  -2.641632  -1.185553  -0.710299
H  -2.741533  -1.342442   1.011450
C  -0.209858  -0.680730   0.017915
H  -1.385308   0.865475   0.894221
H  -1.385525   0.779012  -0.802040
H  -0.207370  -1.137042   0.763927
H   0.729936  -0.074612   0.123128
H  -0.096035  -1.546135  -0.955359
