14
butane_opt
C  -3.918534   0.242743   0.092143
C  -2.709672  -0.593606  -0.005345
H  -4.835060  -0.347130   0.060805
H  -3.913908   0.860043  -0.775008
H  -3.913430   0.933256   0.942186
C  -1.405466   0.193643  -0.081422
H  -2.743418  -1.338125  -0.945148
H  -2.630493  -1.121591   0.825281
C  -0.181331  -0.707458   0.102265
H  -1.443309   0.861385   0.715489
H  -1.314703   0.911644  -1.058171
H  -0.221645  -1.278180   0.949137
H   0.653802  -0.176476   0.244226
H  -0.064137  -1.428695  -0.807979
