butane_opt
 OpenBabel08242015423D

 14 13  0  0  0  0  0  0  0  0999 V2000
   -3.9781    0.2744   -0.0344 C   0  0  0  0  0  0  0  0  0  0  0  0
   -2.6766   -0.6386    0.0769 C   0  0  0  0  0  0  0  0  0  0  0  0
   -4.8585   -0.2567    0.1796 H   0  0  0  0  0  0  0  0  0  0  0  0
   -4.1133    1.0944   -1.0379 H   0  0  0  0  0  0  0  0  0  0  0  0
   -3.8917    0.7321    0.7017 H   0  0  0  0  0  0  0  0  0  0  0  0
   -1.3917    0.1770    0.0805 C   0  0  0  0  0  0  0  0  0  0  0  0
   -2.6528   -1.2687   -0.7943 H   0  0  0  0  0  0  0  0  0  0  0  0
   -2.7604   -1.2825    0.9897 H   0  0  0  0  0  0  0  0  0  0  0  0
   -0.1562   -0.6747   -0.0076 C   0  0  0  0  0  0  0  0  0  0  0  0
   -1.2897    0.8277    0.9272 H   0  0  0  0  0  0  0  0  0  0  0  0
   -1.4326    0.7494   -0.7693 H   0  0  0  0  0  0  0  0  0  0  0  0
   -0.0922   -1.1644    0.7410 H   0  0  0  0  0  0  0  0  0  0  0  0
    0.6941   -0.1068    0.0315 H   0  0  0  0  0  0  0  0  0  0  0  0
   -0.1939   -1.4474   -0.9438 H   0  0  0  0  0  0  0  0  0  0  0  0
  1  2  1  0  0  0  0
  1  3  1  0  0  0  0
  1  5  1  0  0  0  0
  2  6  1  0  0  0  0
  2  8  1  0  0  0  0
  4  1  1  0  0  0  0
  6 10  1  0  0  0  0
  7  2  1  0  0  0  0
  9 13  1  0  0  0  0
  9  6  1  0  0  0  0
  9 12  1  0  0  0  0
 11  6  1  0  0  0  0
 14  9  1  0  0  0  0
M  END
$$$$
