butane_opt
 OpenBabel08242015423D

 14 13  0  0  0  0  0  0  0  0999 V2000
   -3.9506    0.2873   -0.0393 C   0  0  0  0  0  0  0  0  0  0  0  0
   -2.7040   -0.6341    0.1044 C   0  0  0  0  0  0  0  0  0  0  0  0
   -4.8779   -0.3673   -0.1521 H   0  0  0  0  0  0  0  0  0  0  0  0
   -3.9271    0.9197   -0.9409 H   0  0  0  0  0  0  0  0  0  0  0  0
   -4.1174    1.0102    0.8554 H   0  0  0  0  0  0  0  0  0  0  0  0
   -1.3916    0.1559    0.0635 C   0  0  0  0  0  0  0  0  0  0  0  0
   -2.6200   -1.2407   -0.6537 H   0  0  0  0  0  0  0  0  0  0  0  0
   -2.7070   -1.3340    1.0243 H   0  0  0  0  0  0  0  0  0  0  0  0
   -0.1688   -0.6712   -0.0337 C   0  0  0  0  0  0  0  0  0  0  0  0
   -1.2024    0.9182    0.9756 H   0  0  0  0  0  0  0  0  0  0  0  0
   -1.4635    0.6746   -0.7649 H   0  0  0  0  0  0  0  0  0  0  0  0
   -0.0749   -1.3231    0.8720 H   0  0  0  0  0  0  0  0  0  0  0  0
    0.7435   -0.0630   -0.0516 H   0  0  0  0  0  0  0  0  0  0  0  0
   -0.1966   -1.3172   -0.8491 H   0  0  0  0  0  0  0  0  0  0  0  0
  1  2  1  0  0  0  0
  1  5  1  0  0  0  0
  2  8  1  0  0  0  0
  3  1  1  0  0  0  0
  4  1  1  0  0  0  0
  6  2  1  0  0  0  0
  6 10  1  0  0  0  0
  7  2  1  0  0  0  0
  9  6  1  0  0  0  0
  9 12  1  0  0  0  0
 11  6  1  0  0  0  0
 13  9  1  0  0  0  0
 14  9  1  0  0  0  0
M  END
$$$$
