butane_opt
 OpenBabel08242015423D

 14 13  0  0  0  0  0  0  0  0999 V2000
   -3.9411    0.2397    0.0391 C   0  0  0  0  0  0  0  0  0  0  0  0
   -2.7230   -0.5788    0.0023 C   0  0  0  0  0  0  0  0  0  0  0  0
   -4.8315   -0.3204   -0.0196 H   0  0  0  0  0  0  0  0  0  0  0  0
   -3.9459    0.7467   -0.8264 H   0  0  0  0  0  0  0  0  0  0  0  0
   -3.8983    1.0160    0.9737 H   0  0  0  0  0  0  0  0  0  0  0  0
   -1.4155    0.2062   -0.0042 C   0  0  0  0  0  0  0  0  0  0  0  0
   -2.7266   -1.3175   -0.9007 H   0  0  0  0  0  0  0  0  0  0  0  0
   -2.7519   -1.2582    0.9115 H   0  0  0  0  0  0  0  0  0  0  0  0
   -0.1349   -0.7146    0.0593 C   0  0  0  0  0  0  0  0  0  0  0  0
   -1.4567    0.8989    0.8750 H   0  0  0  0  0  0  0  0  0  0  0  0
   -1.3962    0.7477   -0.8853 H   0  0  0  0  0  0  0  0  0  0  0  0
    0.0490   -1.5113    1.0701 H   0  0  0  0  0  0  0  0  0  0  0  0
    0.7476   -0.1223   -0.2052 H   0  0  0  0  0  0  0  0  0  0  0  0
   -0.2422   -1.1647   -0.6760 H   0  0  0  0  0  0  0  0  0  0  0  0
  1  5  1  0  0  0  0
  2  1  1  0  0  0  0
  2  8  1  0  0  0  0
  3  1  1  0  0  0  0
  4  1  1  0  0  0  0
  6  2  1  0  0  0  0
  6  9  1  0  0  0  0
  6 10  1  0  0  0  0
  7  2  1  0  0  0  0
  9 12  1  0  0  0  0
 11  6  1  0  0  0  0
 13  9  1  0  0  0  0
 14  9  1  0  0  0  0
M  END
$$$$
