butane_opt
 OpenBabel08242015423D

 14 13  0  0  0  0  0  0  0  0999 V2000
   -3.9392    0.2505   -0.0539 C   0  0  0  0  0  0  0  0  0  0  0  0
   -2.6812   -0.5857    0.1424 C   0  0  0  0  0  0  0  0  0  0  0  0
   -4.9275   -0.4455   -0.2190 H   0  0  0  0  0  0  0  0  0  0  0  0
   -3.8231    0.7949   -0.8993 H   0  0  0  0  0  0  0  0  0  0  0  0
   -4.0825    1.0101    0.8612 H   0  0  0  0  0  0  0  0  0  0  0  0
   -1.4132    0.1828    0.0658 C   0  0  0  0  0  0  0  0  0  0  0  0
   -2.6735   -1.2386   -0.7197 H   0  0  0  0  0  0  0  0  0  0  0  0
   -2.7960   -1.2525    1.0468 H   0  0  0  0  0  0  0  0  0  0  0  0
   -0.1644   -0.7031   -0.0332 C   0  0  0  0  0  0  0  0  0  0  0  0
   -1.3285    0.9212    0.9298 H   0  0  0  0  0  0  0  0  0  0  0  0
   -1.4603    0.8280   -0.8073 H   0  0  0  0  0  0  0  0  0  0  0  0
   -0.0999   -1.2912    0.8130 H   0  0  0  0  0  0  0  0  0  0  0  0
    0.7421   -0.1603   -0.0900 H   0  0  0  0  0  0  0  0  0  0  0  0
   -0.1769   -1.3928   -0.9219 H   0  0  0  0  0  0  0  0  0  0  0  0
  1  2  1  0  0  0  0
  1  5  1  0  0  0  0
  2  8  1  0  0  0  0
  3  1  1  0  0  0  0
  4  1  1  0  0  0  0
  6  2  1  0  0  0  0
  6 10  1  0  0  0  0
  7  2  1  0  0  0  0
  9  6  1  0  0  0  0
  9 12  1  0  0  0  0
 11  6  1  0  0  0  0
 13  9  1  0  0  0  0
 14  9  1  0  0  0  0
M  END
$$$$
