14
butane_opt
C  -3.917932   0.257583   0.056789
C  -2.702073  -0.594945   0.028183
H  -4.934347  -0.452913  -0.188420
H  -3.878289   0.683273  -0.704635
H  -3.956755   1.050203   1.020582
C  -1.425770   0.199739  -0.043842
H  -2.694281  -1.401405  -0.926873
H  -2.724162  -1.084183   0.860033
C  -0.158094  -0.709980   0.066775
H  -1.449338   0.801823   0.775200
H  -1.461629   0.900169  -0.954924
H  -0.119507  -1.478863   1.108004
H   0.751603  -0.101908  -0.080807
H  -0.104551  -1.235703  -0.733269
