14
butane_opt
C  -3.950620   0.287342  -0.039344
C  -2.704016  -0.634058   0.104360
H  -4.877881  -0.367287  -0.152084
H  -3.927069   0.919689  -0.940926
H  -4.117362   1.010151   0.855439
C  -1.391620   0.155934   0.063541
H  -2.619952  -1.240726  -0.653720
H  -2.707035  -1.333958   1.024307
C  -0.168799  -0.671215  -0.033652
H  -1.202417   0.918200   0.975576
H  -1.463453   0.674596  -0.764905
H  -0.074913  -1.323095   0.872002
H   0.743514  -0.062963  -0.051555
H  -0.196559  -1.317203  -0.849127
