butane_opt
 OpenBabel08242015423D

 14 13  0  0  0  0  0  0  0  0999 V2000
   -3.9504    0.2510    0.0564 C   0  0  0  0  0  0  0  0  0  0  0  0
   -2.7027   -0.6031    0.0062 C   0  0  0  0  0  0  0  0  0  0  0  0
   -4.9141   -0.3893   -0.0835 H   0  0  0  0  0  0  0  0  0  0  0  0
   -3.9402    0.7468   -0.7884 H   0  0  0  0  0  0  0  0  0  0  0  0
   -3.9782    1.1257    1.0289 H   0  0  0  0  0  0  0  0  0  0  0  0
   -1.3872    0.2020   -0.0370 C   0  0  0  0  0  0  0  0  0  0  0  0
   -2.7763   -1.2470   -0.8075 H   0  0  0  0  0  0  0  0  0  0  0  0
   -2.7188   -1.3034    0.9748 H   0  0  0  0  0  0  0  0  0  0  0  0
   -0.1695   -0.7133    0.0596 C   0  0  0  0  0  0  0  0  0  0  0  0
   -1.4935    0.8711    0.7515 H   0  0  0  0  0  0  0  0  0  0  0  0
   -1.2789    0.8998   -0.9634 H   0  0  0  0  0  0  0  0  0  0  0  0
   -0.0678   -1.3428    0.9845 H   0  0  0  0  0  0  0  0  0  0  0  0
    0.7330   -0.1276    0.1267 H   0  0  0  0  0  0  0  0  0  0  0  0
   -0.0613   -1.3588   -0.7928 H   0  0  0  0  0  0  0  0  0  0  0  0
  1  5  1  0  0  0  0
  2  1  1  0  0  0  0
  2  8  1  0  0  0  0
  3  1  1  0  0  0  0
  4  1  1  0  0  0  0
  6  2  1  0  0  0  0
  6  9  1  0  0  0  0
  6 10  1  0  0  0  0
  7  2  1  0  0  0  0
  9 13  1  0  0  0  0
  9 12  1  0  0  0  0
 11  6  1  0  0  0  0
 14  9  1  0  0  0  0
M  END
$$$$
