14
butane_opt
C  -3.964005   0.289825   0.055841
C  -2.702731  -0.662335   0.015046
H  -4.859666  -0.241602  -0.111299
H  -3.947049   0.732542  -0.733920
H  -4.039797   1.159594   1.038338
C  -1.384932   0.170544  -0.047041
H  -2.746133  -1.382773  -0.867026
H  -2.651828  -1.244808   0.916934
C  -0.153850  -0.669599   0.087138
H  -1.390082   0.745876   0.715370
H  -1.346972   0.927699  -1.026923
H  -0.166352  -1.229127   0.974450
H   0.727465  -0.125806  -0.006954
H  -0.142539  -1.360488  -0.780357
