butane_opt
 OpenBabel08242015423D

 14 13  0  0  0  0  0  0  0  0999 V2000
   -3.9179    0.2576    0.0568 C   0  0  0  0  0  0  0  0  0  0  0  0
   -2.7021   -0.5949    0.0282 C   0  0  0  0  0  0  0  0  0  0  0  0
   -4.9343   -0.4529   -0.1884 H   0  0  0  0  0  0  0  0  0  0  0  0
   -3.8783    0.6833   -0.7046 H   0  0  0  0  0  0  0  0  0  0  0  0
   -3.9568    1.0502    1.0206 H   0  0  0  0  0  0  0  0  0  0  0  0
   -1.4258    0.1997   -0.0438 C   0  0  0  0  0  0  0  0  0  0  0  0
   -2.6943   -1.4014   -0.9269 H   0  0  0  0  0  0  0  0  0  0  0  0
   -2.7242   -1.0842    0.8600 H   0  0  0  0  0  0  0  0  0  0  0  0
   -0.1581   -0.7100    0.0668 C   0  0  0  0  0  0  0  0  0  0  0  0
   -1.4493    0.8018    0.7752 H   0  0  0  0  0  0  0  0  0  0  0  0
   -1.4616    0.9002   -0.9549 H   0  0  0  0  0  0  0  0  0  0  0  0
   -0.1195   -1.4789    1.1080 H   0  0  0  0  0  0  0  0  0  0  0  0
    0.7516   -0.1019   -0.0808 H   0  0  0  0  0  0  0  0  0  0  0  0
   -0.1046   -1.2357   -0.7333 H   0  0  0  0  0  0  0  0  0  0  0  0
  1  5  1  0  0  0  0
  2  1  1  0  0  0  0
  2  8  1  0  0  0  0
  3  1  1  0  0  0  0
  4  1  1  0  0  0  0
  6  2  1  0  0  0  0
  6  9  1  0  0  0  0
  6 10  1  0  0  0  0
  7  2  1  0  0  0  0
  9 12  1  0  0  0  0
 11  6  1  0  0  0  0
 13  9  1  0  0  0  0
 14  9  1  0  0  0  0
M  END
$$$$
