14
butane_opt
C  -3.945180   0.273753   0.049509
C  -2.705948  -0.630680  -0.005256
H  -4.887136  -0.316622   0.150368
H  -4.069898   0.915811  -0.855954
H  -3.906638   0.927346   0.915197
C  -1.404551   0.175431  -0.028969
H  -2.740471  -1.310036  -0.842596
H  -2.628823  -1.226939   0.874065
C  -0.154102  -0.688501   0.070010
H  -1.420105   0.859822   0.814309
H  -1.351617   0.835322  -0.927800
H  -0.153791  -1.281690   0.965683
H   0.791090  -0.062613   0.112287
H  -0.139725  -1.374652  -0.796242
