butane_opt
 OpenBabel08242015423D

 14 13  0  0  0  0  0  0  0  0999 V2000
   -3.9316    0.2597   -0.0315 C   0  0  0  0  0  0  0  0  0  0  0  0
   -2.6986   -0.6170    0.0855 C   0  0  0  0  0  0  0  0  0  0  0  0
   -4.8502   -0.3406    0.0370 H   0  0  0  0  0  0  0  0  0  0  0  0
   -3.8797    0.9641   -1.0119 H   0  0  0  0  0  0  0  0  0  0  0  0
   -3.9736    0.7739    0.7086 H   0  0  0  0  0  0  0  0  0  0  0  0
   -1.4095    0.2095    0.0797 C   0  0  0  0  0  0  0  0  0  0  0  0
   -2.6746   -1.2734   -0.7462 H   0  0  0  0  0  0  0  0  0  0  0  0
   -2.7395   -1.1885    0.9207 H   0  0  0  0  0  0  0  0  0  0  0  0
   -0.1744   -0.7157   -0.0132 C   0  0  0  0  0  0  0  0  0  0  0  0
   -1.2679    0.9626    1.0109 H   0  0  0  0  0  0  0  0  0  0  0  0
   -1.4255    0.7814   -0.7322 H   0  0  0  0  0  0  0  0  0  0  0  0
    0.0177   -1.3692    0.8331 H   0  0  0  0  0  0  0  0  0  0  0  0
    0.6791   -0.1320   -0.1632 H   0  0  0  0  0  0  0  0  0  0  0  0
   -0.3286   -1.2973   -0.8594 H   0  0  0  0  0  0  0  0  0  0  0  0
  1  3  1  0  0  0  0
  1  2  1  0  0  0  0
  1  5  1  0  0  0  0
  2  8  1  0  0  0  0
  4  1  1  0  0  0  0
  6  2  1  0  0  0  0
  6 10  1  0  0  0  0
  7  2  1  0  0  0  0
  9  6  1  0  0  0  0
  9 12  1  0  0  0  0
 11  6  1  0  0  0  0
 13  9  1  0  0  0  0
 14  9  1  0  0  0  0
M  END
$$$$
