14
butane_opt
C  -3.941106   0.239677   0.039130
C  -2.722987  -0.578829   0.002312
H  -4.831538  -0.320431  -0.019644
H  -3.945924   0.746737  -0.826413
H  -3.898299   1.016036   0.973714
C  -1.415454   0.206250  -0.004229
H  -2.726625  -1.317498  -0.900703
H  -2.751864  -1.258164   0.911533
C  -0.134870  -0.714577   0.059339
H  -1.456684   0.898906   0.874981
H  -1.396210   0.747656  -0.885344
H   0.049028  -1.511258   1.070113
H   0.747607  -0.122300  -0.205200
H  -0.242243  -1.164729  -0.675998
