14
butane_opt
C  -3.938785   0.278600  -0.019230
C  -2.690618  -0.625698   0.070951
H  -4.844551  -0.340828   0.206876
H  -4.091720   1.100639  -1.069035
H  -3.872720   0.759618   0.706779
C  -1.402714   0.162777   0.066788
H  -2.618043  -1.309093  -0.787541
H  -2.710867  -1.239295   0.962722
C  -0.182284  -0.678209  -0.011296
H  -1.329295   0.879315   0.982981
H  -1.301219   0.808920  -0.831845
H  -0.225454  -1.228237   0.813260
H   0.733484  -0.066169   0.079024
H  -0.184052  -1.485992  -0.948556
