butane_opt
 OpenBabel08242015423D

 14 13  0  0  0  0  0  0  0  0999 V2000
   -3.9450    0.2619    0.0390 C   0  0  0  0  0  0  0  0  0  0  0  0
   -2.7052   -0.6196    0.0199 C   0  0  0  0  0  0  0  0  0  0  0  0
   -4.8838   -0.3386    0.1136 H   0  0  0  0  0  0  0  0  0  0  0  0
   -3.9834    0.8653   -0.8205 H   0  0  0  0  0  0  0  0  0  0  0  0
   -3.9209    0.9366    0.9154 H   0  0  0  0  0  0  0  0  0  0  0  0
   -1.4047    0.2034   -0.0243 C   0  0  0  0  0  0  0  0  0  0  0  0
   -2.7723   -1.3405   -0.8690 H   0  0  0  0  0  0  0  0  0  0  0  0
   -2.6664   -1.2320    0.8775 H   0  0  0  0  0  0  0  0  0  0  0  0
   -0.1619   -0.6995    0.0586 C   0  0  0  0  0  0  0  0  0  0  0  0
   -1.4044    0.8290    0.7988 H   0  0  0  0  0  0  0  0  0  0  0  0
   -1.3857    0.8953   -0.9619 H   0  0  0  0  0  0  0  0  0  0  0  0
   -0.1502   -1.2919    0.9552 H   0  0  0  0  0  0  0  0  0  0  0  0
    0.7533   -0.1187    0.1568 H   0  0  0  0  0  0  0  0  0  0  0  0
   -0.0165   -1.4337   -0.8459 H   0  0  0  0  0  0  0  0  0  0  0  0
  1  3  1  0  0  0  0
  1  5  1  0  0  0  0
  2  1  1  0  0  0  0
  2  8  1  0  0  0  0
  4  1  1  0  0  0  0
  6  2  1  0  0  0  0
  6  9  1  0  0  0  0
  6 10  1  0  0  0  0
  7  2  1  0  0  0  0
  9 13  1  0  0  0  0
  9 12  1  0  0  0  0
 11  6  1  0  0  0  0
 14  9  1  0  0  0  0
M  END
$$$$
