14
butane_opt
C  -3.944678   0.278463  -0.019656
C  -2.680899  -0.624336   0.082088
H  -4.859494  -0.324717  -0.046860
H  -3.928454   0.830108  -0.898718
H  -4.077496   0.975879   0.860617
C  -1.399654   0.169664   0.043273
H  -2.689525  -1.315523  -0.780094
H  -2.699149  -1.298144   1.007584
C  -0.176395  -0.679205   0.002617
H  -1.368551   0.819104   0.906712
H  -1.392631   0.824035  -0.852376
H  -0.088855  -1.254861   0.878315
H   0.729029  -0.084543  -0.050058
H  -0.227818  -1.375811  -0.883343
