butane_opt
 OpenBabel08242015423D

 14 13  0  0  0  0  0  0  0  0999 V2000
   -3.9479    0.2694    0.0664 C   0  0  0  0  0  0  0  0  0  0  0  0
   -2.6864   -0.6303   -0.0008 C   0  0  0  0  0  0  0  0  0  0  0  0
   -4.7961   -0.2443    0.1647 H   0  0  0  0  0  0  0  0  0  0  0  0
   -4.1364    0.7663   -0.7036 H   0  0  0  0  0  0  0  0  0  0  0  0
   -3.9642    1.0331    0.9432 H   0  0  0  0  0  0  0  0  0  0  0  0
   -1.4118    0.1722   -0.0695 C   0  0  0  0  0  0  0  0  0  0  0  0
   -2.7626   -1.3636   -0.9360 H   0  0  0  0  0  0  0  0  0  0  0  0
   -2.6585   -1.2419    0.8496 H   0  0  0  0  0  0  0  0  0  0  0  0
   -0.1585   -0.6783    0.0950 C   0  0  0  0  0  0  0  0  0  0  0  0
   -1.4060    0.7631    0.6735 H   0  0  0  0  0  0  0  0  0  0  0  0
   -1.2952    0.9497   -1.0586 H   0  0  0  0  0  0  0  0  0  0  0  0
   -0.2756   -1.2074    0.9469 H   0  0  0  0  0  0  0  0  0  0  0  0
    0.7629   -0.0790    0.2960 H   0  0  0  0  0  0  0  0  0  0  0  0
   -0.0348   -1.4526   -0.8199 H   0  0  0  0  0  0  0  0  0  0  0  0
  1  3  1  0  0  0  0
  1  5  1  0  0  0  0
  2  1  1  0  0  0  0
  2  8  1  0  0  0  0
  4  1  1  0  0  0  0
  6  2  1  0  0  0  0
  6  9  1  0  0  0  0
  6 10  1  0  0  0  0
  7  2  1  0  0  0  0
  9 13  1  0  0  0  0
  9 12  1  0  0  0  0
 11  6  1  0  0  0  0
 14  9  1  0  0  0  0
M  END
$$$$
