butane_opt
 OpenBabel08242015423D

 14 13  0  0  0  0  0  0  0  0999 V2000
   -3.9461    0.2701   -0.0075 C   0  0  0  0  0  0  0  0  0  0  0  0
   -2.6937   -0.6317    0.0771 C   0  0  0  0  0  0  0  0  0  0  0  0
   -4.8563   -0.3284   -0.0915 H   0  0  0  0  0  0  0  0  0  0  0  0
   -3.9453    0.8665   -0.9066 H   0  0  0  0  0  0  0  0  0  0  0  0
   -4.0724    1.0114    0.8742 H   0  0  0  0  0  0  0  0  0  0  0  0
   -1.4096    0.1869    0.0380 C   0  0  0  0  0  0  0  0  0  0  0  0
   -2.6833   -1.2947   -0.7608 H   0  0  0  0  0  0  0  0  0  0  0  0
   -2.7322   -1.2998    0.9941 H   0  0  0  0  0  0  0  0  0  0  0  0
   -0.1566   -0.6917   -0.0072 C   0  0  0  0  0  0  0  0  0  0  0  0
   -1.3455    0.9063    0.9244 H   0  0  0  0  0  0  0  0  0  0  0  0
   -1.3853    0.7707   -0.8617 H   0  0  0  0  0  0  0  0  0  0  0  0
   -0.1313   -1.3318    0.9143 H   0  0  0  0  0  0  0  0  0  0  0  0
    0.7544   -0.0602   -0.0182 H   0  0  0  0  0  0  0  0  0  0  0  0
   -0.1522   -1.3134   -0.8237 H   0  0  0  0  0  0  0  0  0  0  0  0
  1  2  1  0  0  0  0
  1  5  1  0  0  0  0
  2  8  1  0  0  0  0
  3  1  1  0  0  0  0
  4  1  1  0  0  0  0
  6  2  1  0  0  0  0
  6 10  1  0  0  0  0
  7  2  1  0  0  0  0
  9  6  1  0  0  0  0
  9 12  1  0  0  0  0
 11  6  1  0  0  0  0
 13  9  1  0  0  0  0
 14  9  1  0  0  0  0
M  END
$$$$
