14
butane_opt
C  -3.963996   0.283936  -0.018343
C  -2.682946  -0.632108   0.094851
H  -4.887264  -0.337642  -0.189096
H  -3.920549   0.773858  -0.823020
H  -4.115556   1.050685   0.873221
C  -1.401688   0.168441   0.020939
H  -2.662230  -1.286111  -0.729779
H  -2.694392  -1.301883   1.023159
C  -0.157286  -0.684657  -0.003381
H  -1.246866   0.864021   0.900004
H  -1.457257   0.750745  -0.781081
H  -0.112174  -1.279189   0.913096
H   0.764689  -0.038618  -0.025133
H  -0.215520  -1.301881  -0.831932
