butane_opt
 OpenBabel08242015423D

 14 13  0  0  0  0  0  0  0  0999 V2000
   -3.9251    0.2573    0.0324 C   0  0  0  0  0  0  0  0  0  0  0  0
   -2.6904   -0.5937   -0.0014 C   0  0  0  0  0  0  0  0  0  0  0  0
   -4.9033   -0.4114    0.2880 H   0  0  0  0  0  0  0  0  0  0  0  0
   -4.0802    0.9344   -0.8670 H   0  0  0  0  0  0  0  0  0  0  0  0
   -3.7926    0.8115    0.8266 H   0  0  0  0  0  0  0  0  0  0  0  0
   -1.4173    0.1895   -0.0099 C   0  0  0  0  0  0  0  0  0  0  0  0
   -2.7631   -1.3082   -0.8984 H   0  0  0  0  0  0  0  0  0  0  0  0
   -2.6734   -1.1914    0.8630 H   0  0  0  0  0  0  0  0  0  0  0  0
   -0.1666   -0.7147    0.0535 C   0  0  0  0  0  0  0  0  0  0  0  0
   -1.4273    0.9429    0.9179 H   0  0  0  0  0  0  0  0  0  0  0  0
   -1.4332    0.7948   -0.8962 H   0  0  0  0  0  0  0  0  0  0  0  0
   -0.2195   -1.3090    1.0110 H   0  0  0  0  0  0  0  0  0  0  0  0
    0.7645   -0.0897    0.0428 H   0  0  0  0  0  0  0  0  0  0  0  0
   -0.0942   -1.3134   -0.7541 H   0  0  0  0  0  0  0  0  0  0  0  0
  1  3  1  0  0  0  0
  1  5  1  0  0  0  0
  2  1  1  0  0  0  0
  2  8  1  0  0  0  0
  4  1  1  0  0  0  0
  6  2  1  0  0  0  0
  6  9  1  0  0  0  0
  6 10  1  0  0  0  0
  7  2  1  0  0  0  0
  9 12  1  0  0  0  0
 11  6  1  0  0  0  0
 13  9  1  0  0  0  0
 14  9  1  0  0  0  0
M  END
$$$$
