14
butane_opt
C  -3.926356   0.260653  -0.013875
C  -2.709042  -0.605157   0.088366
H  -4.876809  -0.372324  -0.183259
H  -3.800754   0.758611  -0.873551
H  -4.086202   0.927117   0.817766
C  -1.397904   0.213365   0.052371
H  -2.711127  -1.259484  -0.738222
H  -2.652176  -1.222149   1.014942
C  -0.174958  -0.709595  -0.015915
H  -1.364152   0.861421   0.890308
H  -1.415613   0.825578  -0.818769
H  -0.065977  -1.387568   0.901665
H   0.717859  -0.160197  -0.052747
H  -0.252744  -1.367973  -0.841318
