butane_opt
 OpenBabel08242015423D

 14 13  0  0  0  0  0  0  0  0999 V2000
   -3.9264    0.2607   -0.0139 C   0  0  0  0  0  0  0  0  0  0  0  0
   -2.7090   -0.6052    0.0884 C   0  0  0  0  0  0  0  0  0  0  0  0
   -4.8768   -0.3723   -0.1833 H   0  0  0  0  0  0  0  0  0  0  0  0
   -3.8008    0.7586   -0.8736 H   0  0  0  0  0  0  0  0  0  0  0  0
   -4.0862    0.9271    0.8178 H   0  0  0  0  0  0  0  0  0  0  0  0
   -1.3979    0.2134    0.0524 C   0  0  0  0  0  0  0  0  0  0  0  0
   -2.7111   -1.2595   -0.7382 H   0  0  0  0  0  0  0  0  0  0  0  0
   -2.6522   -1.2221    1.0149 H   0  0  0  0  0  0  0  0  0  0  0  0
   -0.1750   -0.7096   -0.0159 C   0  0  0  0  0  0  0  0  0  0  0  0
   -1.3642    0.8614    0.8903 H   0  0  0  0  0  0  0  0  0  0  0  0
   -1.4156    0.8256   -0.8188 H   0  0  0  0  0  0  0  0  0  0  0  0
   -0.0660   -1.3876    0.9017 H   0  0  0  0  0  0  0  0  0  0  0  0
    0.7179   -0.1602   -0.0527 H   0  0  0  0  0  0  0  0  0  0  0  0
   -0.2527   -1.3680   -0.8413 H   0  0  0  0  0  0  0  0  0  0  0  0
  1  2  1  0  0  0  0
  1  5  1  0  0  0  0
  2  8  1  0  0  0  0
  3  1  1  0  0  0  0
  4  1  1  0  0  0  0
  6  2  1  0  0  0  0
  6 10  1  0  0  0  0
  7  2  1  0  0  0  0
  9  6  1  0  0  0  0
  9 12  1  0  0  0  0
 11  6  1  0  0  0  0
 13  9  1  0  0  0  0
 14  9  1  0  0  0  0
M  END
$$$$
