butane_opt
 OpenBabel08242015423D

 14 13  0  0  0  0  0  0  0  0999 V2000
   -3.9193    0.2821   -0.0206 C   0  0  0  0  0  0  0  0  0  0  0  0
   -2.7054   -0.6267    0.1170 C   0  0  0  0  0  0  0  0  0  0  0  0
   -4.8794   -0.3418   -0.0455 H   0  0  0  0  0  0  0  0  0  0  0  0
   -3.8612    0.9414   -0.9568 H   0  0  0  0  0  0  0  0  0  0  0  0
   -4.0867    0.8209    0.7770 H   0  0  0  0  0  0  0  0  0  0  0  0
   -1.3963    0.1741    0.0208 C   0  0  0  0  0  0  0  0  0  0  0  0
   -2.7032   -1.2804   -0.6892 H   0  0  0  0  0  0  0  0  0  0  0  0
   -2.7335   -1.2406    0.9997 H   0  0  0  0  0  0  0  0  0  0  0  0
   -0.1733   -0.6894   -0.0080 C   0  0  0  0  0  0  0  0  0  0  0  0
   -1.3938    0.8821    0.9204 H   0  0  0  0  0  0  0  0  0  0  0  0
   -1.4559    0.8104   -0.8495 H   0  0  0  0  0  0  0  0  0  0  0  0
   -0.1544   -1.0859    0.7189 H   0  0  0  0  0  0  0  0  0  0  0  0
    0.7573   -0.1200    0.2239 H   0  0  0  0  0  0  0  0  0  0  0  0
   -0.1813   -1.5452   -0.9918 H   0  0  0  0  0  0  0  0  0  0  0  0
  1  2  1  0  0  0  0
  1  5  1  0  0  0  0
  2  8  1  0  0  0  0
  3  1  1  0  0  0  0
  4  1  1  0  0  0  0
  6  2  1  0  0  0  0
  6 10  1  0  0  0  0
  7  2  1  0  0  0  0
  9  6  1  0  0  0  0
  9 13  1  0  0  0  0
  9 12  1  0  0  0  0
 11  6  1  0  0  0  0
 14  9  1  0  0  0  0
M  END
$$$$
