butane_opt
 OpenBabel08242015423D

 14 13  0  0  0  0  0  0  0  0999 V2000
   -3.9660    0.2705    0.0359 C   0  0  0  0  0  0  0  0  0  0  0  0
   -2.7083   -0.6303   -0.0031 C   0  0  0  0  0  0  0  0  0  0  0  0
   -4.7898   -0.2708    0.0371 H   0  0  0  0  0  0  0  0  0  0  0  0
   -4.0042    0.8653   -0.8384 H   0  0  0  0  0  0  0  0  0  0  0  0
   -3.9828    0.9938    0.9844 H   0  0  0  0  0  0  0  0  0  0  0  0
   -1.3823    0.1817    0.0171 C   0  0  0  0  0  0  0  0  0  0  0  0
   -2.7276   -1.3592   -0.8685 H   0  0  0  0  0  0  0  0  0  0  0  0
   -2.6343   -1.2108    0.8359 H   0  0  0  0  0  0  0  0  0  0  0  0
   -0.1681   -0.6880    0.0503 C   0  0  0  0  0  0  0  0  0  0  0  0
   -1.3725    0.7955    0.8046 H   0  0  0  0  0  0  0  0  0  0  0  0
   -1.2973    0.8306   -0.9208 H   0  0  0  0  0  0  0  0  0  0  0  0
   -0.0029   -1.4203    1.0359 H   0  0  0  0  0  0  0  0  0  0  0  0
    0.7117   -0.1488   -0.1153 H   0  0  0  0  0  0  0  0  0  0  0  0
   -0.2295   -1.1387   -0.6938 H   0  0  0  0  0  0  0  0  0  0  0  0
  1  3  1  0  0  0  0
  1  5  1  0  0  0  0
  2  6  1  0  0  0  0
  2  1  1  0  0  0  0
  2  8  1  0  0  0  0
  4  1  1  0  0  0  0
  6  9  1  0  0  0  0
  6 10  1  0  0  0  0
  7  2  1  0  0  0  0
  9 12  1  0  0  0  0
 11  6  1  0  0  0  0
 13  9  1  0  0  0  0
 14  9  1  0  0  0  0
M  END
$$$$
