14
butane_opt
C  -3.951089   0.275468   0.035214
C  -2.697698  -0.635639   0.010463
H  -4.841082  -0.275966   0.171952
H  -4.079968   0.965112  -0.908290
H  -3.983986   0.872957   0.865004
C  -1.403796   0.174085   0.000400
H  -2.715389  -1.301973  -0.843694
H  -2.708019  -1.269448   0.887591
C  -0.152370  -0.682442   0.050872
H  -1.401419   0.861353   0.840558
H  -1.317437   0.787738  -0.889218
H  -0.150288  -1.248294   0.907497
H   0.752219  -0.089932   0.059080
H  -0.118206  -1.345855  -0.822909
