butane_opt
 OpenBabel08242015423D

 14 13  0  0  0  0  0  0  0  0999 V2000
   -3.9313    0.2545    0.0618 C   0  0  0  0  0  0  0  0  0  0  0  0
   -2.7027   -0.6156   -0.0106 C   0  0  0  0  0  0  0  0  0  0  0  0
   -4.8378   -0.3180    0.1159 H   0  0  0  0  0  0  0  0  0  0  0  0
   -3.9574    0.7870   -0.7877 H   0  0  0  0  0  0  0  0  0  0  0  0
   -3.8972    1.0378    1.0295 H   0  0  0  0  0  0  0  0  0  0  0  0
   -1.4032    0.1990   -0.0472 C   0  0  0  0  0  0  0  0  0  0  0  0
   -2.7032   -1.2854   -0.8515 H   0  0  0  0  0  0  0  0  0  0  0  0
   -2.6753   -1.1702    0.8229 H   0  0  0  0  0  0  0  0  0  0  0  0
   -0.1848   -0.7005    0.0927 C   0  0  0  0  0  0  0  0  0  0  0  0
   -1.3618    0.7400    0.7440 H   0  0  0  0  0  0  0  0  0  0  0  0
   -1.4029    0.9403   -1.0610 H   0  0  0  0  0  0  0  0  0  0  0  0
   -0.2057   -1.3143    0.9460 H   0  0  0  0  0  0  0  0  0  0  0  0
    0.7519   -0.1158    0.1577 H   0  0  0  0  0  0  0  0  0  0  0  0
   -0.0732   -1.4208   -0.8119 H   0  0  0  0  0  0  0  0  0  0  0  0
  1  3  1  0  0  0  0
  1  5  1  0  0  0  0
  2  1  1  0  0  0  0
  2  8  1  0  0  0  0
  4  1  1  0  0  0  0
  6  2  1  0  0  0  0
  6  9  1  0  0  0  0
  6 10  1  0  0  0  0
  7  2  1  0  0  0  0
  9 13  1  0  0  0  0
  9 12  1  0  0  0  0
 11  6  1  0  0  0  0
 14  9  1  0  0  0  0
M  END
$$$$
