butane_opt
 OpenBabel08242015423D

 14 13  0  0  0  0  0  0  0  0999 V2000
   -3.9412    0.2803   -0.0133 C   0  0  0  0  0  0  0  0  0  0  0  0
   -2.6750   -0.6182    0.0583 C   0  0  0  0  0  0  0  0  0  0  0  0
   -4.8348   -0.2991    0.1861 H   0  0  0  0  0  0  0  0  0  0  0  0
   -4.1092    1.0722   -0.9997 H   0  0  0  0  0  0  0  0  0  0  0  0
   -3.8862    0.7462    0.7125 H   0  0  0  0  0  0  0  0  0  0  0  0
   -1.4025    0.1539    0.0749 C   0  0  0  0  0  0  0  0  0  0  0  0
   -2.6368   -1.3954   -0.8315 H   0  0  0  0  0  0  0  0  0  0  0  0
   -2.7421   -1.2719    0.9453 H   0  0  0  0  0  0  0  0  0  0  0  0
   -0.1782   -0.6841   -0.0049 C   0  0  0  0  0  0  0  0  0  0  0  0
   -1.4576    0.8674    0.9020 H   0  0  0  0  0  0  0  0  0  0  0  0
   -1.4117    0.7908   -0.8523 H   0  0  0  0  0  0  0  0  0  0  0  0
   -0.1746   -1.2328    0.8388 H   0  0  0  0  0  0  0  0  0  0  0  0
    0.8055    0.0519    0.0157 H   0  0  0  0  0  0  0  0  0  0  0  0
   -0.2255   -1.3631   -0.8828 H   0  0  0  0  0  0  0  0  0  0  0  0
  1  2  1  0  0  0  0
  1  3  1  0  0  0  0
  1  5  1  0  0  0  0
  2  6  1  0  0  0  0
  2  8  1  0  0  0  0
  4  1  1  0  0  0  0
  6 10  1  0  0  0  0
  7  2  1  0  0  0  0
  9 13  1  0  0  0  0
  9  6  1  0  0  0  0
  9 12  1  0  0  0  0
 11  6  1  0  0  0  0
 14  9  1  0  0  0  0
M  END
$$$$
