butane_opt
 OpenBabel08242015423D

 14 13  0  0  0  0  0  0  0  0999 V2000
   -3.9100    0.2511    0.0484 C   0  0  0  0  0  0  0  0  0  0  0  0
   -2.7124   -0.5920    0.0259 C   0  0  0  0  0  0  0  0  0  0  0  0
   -4.8082   -0.3753   -0.1467 H   0  0  0  0  0  0  0  0  0  0  0  0
   -3.8987    0.5849   -0.6800 H   0  0  0  0  0  0  0  0  0  0  0  0
   -3.9689    1.0788    1.0141 H   0  0  0  0  0  0  0  0  0  0  0  0
   -1.4071    0.2139   -0.0436 C   0  0  0  0  0  0  0  0  0  0  0  0
   -2.7233   -1.2959   -0.8386 H   0  0  0  0  0  0  0  0  0  0  0  0
   -2.7767   -1.1673    0.8971 H   0  0  0  0  0  0  0  0  0  0  0  0
   -0.1644   -0.7162    0.0678 C   0  0  0  0  0  0  0  0  0  0  0  0
   -1.4402    0.8501    0.7473 H   0  0  0  0  0  0  0  0  0  0  0  0
   -1.4453    0.8783   -0.9457 H   0  0  0  0  0  0  0  0  0  0  0  0
   -0.1981   -1.4632    1.0167 H   0  0  0  0  0  0  0  0  0  0  0  0
    0.6953   -0.1574   -0.0322 H   0  0  0  0  0  0  0  0  0  0  0  0
   -0.1188   -1.3001   -0.7375 H   0  0  0  0  0  0  0  0  0  0  0  0
  1  5  1  0  0  0  0
  2  1  1  0  0  0  0
  2  8  1  0  0  0  0
  3  1  1  0  0  0  0
  4  1  1  0  0  0  0
  6  2  1  0  0  0  0
  6  9  1  0  0  0  0
  6 10  1  0  0  0  0
  7  2  1  0  0  0  0
  9 12  1  0  0  0  0
 11  6  1  0  0  0  0
 13  9  1  0  0  0  0
 14  9  1  0  0  0  0
M  END
$$$$
