14
butane_opt
C  -3.972780   0.266476   0.048265
C  -2.697446  -0.619996   0.025966
H  -4.889304  -0.312586  -0.008567
H  -4.021097   0.855143  -0.845486
H  -3.954208   0.931674   0.874121
C  -1.399161   0.179124  -0.022955
H  -2.677956  -1.231078  -0.771721
H  -2.679873  -1.233181   0.899901
C  -0.139838  -0.692319   0.054795
H  -1.429633   0.791269   0.821816
H  -1.257849   0.863565  -0.981903
H  -0.216518  -1.184653   0.865908
H   0.747295  -0.098606   0.163123
H  -0.125901  -1.465624  -0.871090
