butane_opt
 OpenBabel08242015423D

 14 13  0  0  0  0  0  0  0  0999 V2000
   -3.9199    0.2438    0.0196 C   0  0  0  0  0  0  0  0  0  0  0  0
   -2.7029   -0.5870    0.0127 C   0  0  0  0  0  0  0  0  0  0  0  0
   -4.8436   -0.3856   -0.0124 H   0  0  0  0  0  0  0  0  0  0  0  0
   -4.0029    0.8254   -0.7833 H   0  0  0  0  0  0  0  0  0  0  0  0
   -3.8807    1.0181    0.9752 H   0  0  0  0  0  0  0  0  0  0  0  0
   -1.4183    0.1931    0.0195 C   0  0  0  0  0  0  0  0  0  0  0  0
   -2.6950   -1.2071   -0.8412 H   0  0  0  0  0  0  0  0  0  0  0  0
   -2.7877   -1.2188    0.9397 H   0  0  0  0  0  0  0  0  0  0  0  0
   -0.1680   -0.7222    0.0329 C   0  0  0  0  0  0  0  0  0  0  0  0
   -1.4215    0.8513    0.8447 H   0  0  0  0  0  0  0  0  0  0  0  0
   -1.3455    0.8017   -0.8622 H   0  0  0  0  0  0  0  0  0  0  0  0
   -0.1146   -1.4358    1.0087 H   0  0  0  0  0  0  0  0  0  0  0  0
    0.7575   -0.0676   -0.1241 H   0  0  0  0  0  0  0  0  0  0  0  0
   -0.1649   -1.1925   -0.7068 H   0  0  0  0  0  0  0  0  0  0  0  0
  1  5  1  0  0  0  0
  2  6  1  0  0  0  0
  2  1  1  0  0  0  0
  2  8  1  0  0  0  0
  3  1  1  0  0  0  0
  4  1  1  0  0  0  0
  6  9  1  0  0  0  0
  6 10  1  0  0  0  0
  7  2  1  0  0  0  0
  9 12  1  0  0  0  0
 11  6  1  0  0  0  0
 13  9  1  0  0  0  0
 14  9  1  0  0  0  0
M  END
$$$$
