butane_opt
 OpenBabel08242015423D

 14 13  0  0  0  0  0  0  0  0999 V2000
   -3.9461    0.2472   -0.0192 C   0  0  0  0  0  0  0  0  0  0  0  0
   -2.7138   -0.6073    0.1068 C   0  0  0  0  0  0  0  0  0  0  0  0
   -4.8732   -0.3787   -0.2272 H   0  0  0  0  0  0  0  0  0  0  0  0
   -3.8221    0.7684   -0.8364 H   0  0  0  0  0  0  0  0  0  0  0  0
   -4.0793    1.0160    0.9062 H   0  0  0  0  0  0  0  0  0  0  0  0
   -1.4177    0.2184    0.0266 C   0  0  0  0  0  0  0  0  0  0  0  0
   -2.7412   -1.3056   -0.7469 H   0  0  0  0  0  0  0  0  0  0  0  0
   -2.8094   -1.2789    1.0470 H   0  0  0  0  0  0  0  0  0  0  0  0
   -0.1153   -0.7086   -0.0069 C   0  0  0  0  0  0  0  0  0  0  0  0
   -1.3217    0.9416    0.8630 H   0  0  0  0  0  0  0  0  0  0  0  0
   -1.5569    0.8751   -0.8577 H   0  0  0  0  0  0  0  0  0  0  0  0
   -0.0918   -1.2944    0.8666 H   0  0  0  0  0  0  0  0  0  0  0  0
    0.7139   -0.2345    0.0186 H   0  0  0  0  0  0  0  0  0  0  0  0
   -0.1112   -1.3959   -0.8632 H   0  0  0  0  0  0  0  0  0  0  0  0
  1  2  1  0  0  0  0
  1  5  1  0  0  0  0
  2  8  1  0  0  0  0
  3  1  1  0  0  0  0
  4  1  1  0  0  0  0
  6  2  1  0  0  0  0
  6 10  1  0  0  0  0
  7  2  1  0  0  0  0
  9 13  1  0  0  0  0
  9  6  1  0  0  0  0
  9 12  1  0  0  0  0
 11  6  1  0  0  0  0
 14  9  1  0  0  0  0
M  END
$$$$
