14
butane_opt
C  -3.919868   0.243764   0.019626
C  -2.702851  -0.587029   0.012740
H  -4.843563  -0.385591  -0.012432
H  -4.002892   0.825410  -0.783315
H  -3.880720   1.018103   0.975186
C  -1.418336   0.193136   0.019512
H  -2.695009  -1.207133  -0.841182
H  -2.787715  -1.218824   0.939720
C  -0.168019  -0.722176   0.032925
H  -1.421477   0.851342   0.844658
H  -1.345495   0.801714  -0.862241
H  -0.114590  -1.435796   1.008748
H   0.757528  -0.067624  -0.124147
H  -0.164876  -1.192495  -0.706765
