butane_opt
 OpenBabel08242015423D

 14 13  0  0  0  0  0  0  0  0999 V2000
   -3.9114    0.2433   -0.0331 C   0  0  0  0  0  0  0  0  0  0  0  0
   -2.6993   -0.5956    0.1130 C   0  0  0  0  0  0  0  0  0  0  0  0
   -4.9197   -0.4237   -0.0694 H   0  0  0  0  0  0  0  0  0  0  0  0
   -3.7846    0.8644   -0.9579 H   0  0  0  0  0  0  0  0  0  0  0  0
   -4.0856    0.9324    0.8668 H   0  0  0  0  0  0  0  0  0  0  0  0
   -1.4193    0.2242    0.0441 C   0  0  0  0  0  0  0  0  0  0  0  0
   -2.7649   -1.2889   -0.7107 H   0  0  0  0  0  0  0  0  0  0  0  0
   -2.6469   -1.2708    1.0002 H   0  0  0  0  0  0  0  0  0  0  0  0
   -0.1752   -0.7170   -0.0100 C   0  0  0  0  0  0  0  0  0  0  0  0
   -1.3755    0.9205    0.8984 H   0  0  0  0  0  0  0  0  0  0  0  0
   -1.4602    0.8455   -0.8610 H   0  0  0  0  0  0  0  0  0  0  0  0
   -0.0998   -1.2349    0.7994 H   0  0  0  0  0  0  0  0  0  0  0  0
    0.7251   -0.1822    0.0433 H   0  0  0  0  0  0  0  0  0  0  0  0
   -0.1294   -1.5056   -0.9477 H   0  0  0  0  0  0  0  0  0  0  0  0
  1  2  1  0  0  0  0
  1  5  1  0  0  0  0
  2  8  1  0  0  0  0
  3  1  1  0  0  0  0
  4  1  1  0  0  0  0
  6  2  1  0  0  0  0
  6 10  1  0  0  0  0
  7  2  1  0  0  0  0
  9 13  1  0  0  0  0
  9  6  1  0  0  0  0
  9 12  1  0  0  0  0
 11  6  1  0  0  0  0
 14  9  1  0  0  0  0
M  END
$$$$
