butane_opt
 OpenBabel08242015423D

 14 13  0  0  0  0  0  0  0  0999 V2000
   -3.9438    0.2804   -0.0434 C   0  0  0  0  0  0  0  0  0  0  0  0
   -2.7007   -0.6325    0.0982 C   0  0  0  0  0  0  0  0  0  0  0  0
   -4.8337   -0.3336   -0.0869 H   0  0  0  0  0  0  0  0  0  0  0  0
   -3.9527    0.8941   -0.9769 H   0  0  0  0  0  0  0  0  0  0  0  0
   -3.9143    1.0103    0.8703 H   0  0  0  0  0  0  0  0  0  0  0  0
   -1.4061    0.1671    0.0738 C   0  0  0  0  0  0  0  0  0  0  0  0
   -2.6334   -1.2094   -0.7207 H   0  0  0  0  0  0  0  0  0  0  0  0
   -2.7913   -1.3023    1.0432 H   0  0  0  0  0  0  0  0  0  0  0  0
   -0.1645   -0.6901   -0.0218 C   0  0  0  0  0  0  0  0  0  0  0  0
   -1.3459    0.8952    0.9411 H   0  0  0  0  0  0  0  0  0  0  0  0
   -1.4086    0.7103   -0.7756 H   0  0  0  0  0  0  0  0  0  0  0  0
   -0.0848   -1.2705    0.8651 H   0  0  0  0  0  0  0  0  0  0  0  0
    0.8058   -0.0518   -0.1364 H   0  0  0  0  0  0  0  0  0  0  0  0
   -0.2879   -1.3014   -0.8622 H   0  0  0  0  0  0  0  0  0  0  0  0
  1  2  1  0  0  0  0
  1  5  1  0  0  0  0
  2  8  1  0  0  0  0
  3  1  1  0  0  0  0
  4  1  1  0  0  0  0
  6  2  1  0  0  0  0
  6 10  1  0  0  0  0
  7  2  1  0  0  0  0
  9  6  1  0  0  0  0
  9 12  1  0  0  0  0
 11  6  1  0  0  0  0
 13  9  1  0  0  0  0
 14  9  1  0  0  0  0
M  END
$$$$
