14
butane_opt
C  -3.936586   0.268911  -0.025778
C  -2.680718  -0.626351   0.113514
H  -4.834206  -0.249218  -0.184955
H  -3.863444   0.818782  -0.931573
H  -4.115546   0.954876   0.817554
C  -1.412318   0.176505   0.052934
H  -2.587592  -1.242855  -0.708345
H  -2.753921  -1.316048   1.097330
C  -0.194835  -0.682723  -0.017151
H  -1.327358   0.823054   0.914452
H  -1.351129   0.838515  -0.855833
H  -0.112341  -1.180601   0.782366
H   0.755620  -0.048223   0.001304
H  -0.147197  -1.508750  -0.987718
