butane_opt
 OpenBabel08242015423D

 14 13  0  0  0  0  0  0  0  0999 V2000
   -3.9687    0.2741    0.0490 C   0  0  0  0  0  0  0  0  0  0  0  0
   -2.6976   -0.6282    0.0123 C   0  0  0  0  0  0  0  0  0  0  0  0
   -4.7967   -0.2217   -0.1360 H   0  0  0  0  0  0  0  0  0  0  0  0
   -4.0085    0.7423   -0.7709 H   0  0  0  0  0  0  0  0  0  0  0  0
   -3.9815    1.0850    1.0269 H   0  0  0  0  0  0  0  0  0  0  0  0
   -1.3849    0.1642   -0.0191 C   0  0  0  0  0  0  0  0  0  0  0  0
   -2.7654   -1.3344   -0.8331 H   0  0  0  0  0  0  0  0  0  0  0  0
   -2.7417   -1.1580    0.8644 H   0  0  0  0  0  0  0  0  0  0  0  0
   -0.1559   -0.6834    0.0493 C   0  0  0  0  0  0  0  0  0  0  0  0
   -1.3963    0.8318    0.8555 H   0  0  0  0  0  0  0  0  0  0  0  0
   -1.3355    0.7594   -0.9420 H   0  0  0  0  0  0  0  0  0  0  0  0
   -0.1947   -1.5004    1.0595 H   0  0  0  0  0  0  0  0  0  0  0  0
    0.7977   -0.0764   -0.1064 H   0  0  0  0  0  0  0  0  0  0  0  0
   -0.1301   -1.0969   -0.6501 H   0  0  0  0  0  0  0  0  0  0  0  0
  1  5  1  0  0  0  0
  2  1  1  0  0  0  0
  2  8  1  0  0  0  0
  3  1  1  0  0  0  0
  4  1  1  0  0  0  0
  6  2  1  0  0  0  0
  6  9  1  0  0  0  0
  6 10  1  0  0  0  0
  7  2  1  0  0  0  0
  9 12  1  0  0  0  0
 11  6  1  0  0  0  0
 13  9  1  0  0  0  0
 14  9  1  0  0  0  0
M  END
$$$$
