butane_opt
 OpenBabel08242015423D

 14 13  0  0  0  0  0  0  0  0999 V2000
   -3.9540    0.2822    0.0477 C   0  0  0  0  0  0  0  0  0  0  0  0
   -2.6968   -0.6473    0.0021 C   0  0  0  0  0  0  0  0  0  0  0  0
   -4.8291   -0.2653   -0.0665 H   0  0  0  0  0  0  0  0  0  0  0  0
   -3.9914    0.7155   -0.7117 H   0  0  0  0  0  0  0  0  0  0  0  0
   -4.0073    1.1096    1.0214 H   0  0  0  0  0  0  0  0  0  0  0  0
   -1.3835    0.1786   -0.0186 C   0  0  0  0  0  0  0  0  0  0  0  0
   -2.7710   -1.3093   -0.8557 H   0  0  0  0  0  0  0  0  0  0  0  0
   -2.6955   -1.1946    0.8369 H   0  0  0  0  0  0  0  0  0  0  0  0
   -0.1606   -0.6933    0.0736 C   0  0  0  0  0  0  0  0  0  0  0  0
   -1.4409    0.7538    0.7967 H   0  0  0  0  0  0  0  0  0  0  0  0
   -1.3213    0.9303   -1.0003 H   0  0  0  0  0  0  0  0  0  0  0  0
   -0.1813   -1.3707    1.0365 H   0  0  0  0  0  0  0  0  0  0  0  0
    0.7653   -0.0819   -0.1160 H   0  0  0  0  0  0  0  0  0  0  0  0
   -0.2151   -1.2052   -0.7388 H   0  0  0  0  0  0  0  0  0  0  0  0
  1  5  1  0  0  0  0
  2  1  1  0  0  0  0
  2  8  1  0  0  0  0
  3  1  1  0  0  0  0
  4  1  1  0  0  0  0
  6  2  1  0  0  0  0
  6  9  1  0  0  0  0
  6 10  1  0  0  0  0
  7  2  1  0  0  0  0
  9 12  1  0  0  0  0
 11  6  1  0  0  0  0
 13  9  1  0  0  0  0
 14  9  1  0  0  0  0
M  END
$$$$
