14
butane_opt
C  -3.979113   0.287909   0.025871
C  -2.705526  -0.641500   0.040010
H  -4.894292  -0.323970   0.025478
H  -3.947076   0.896314  -0.861433
H  -4.043887   0.980577   0.872676
C  -1.387517   0.169254  -0.016691
H  -2.730466  -1.239330  -0.735467
H  -2.653510  -1.320721   0.982776
C  -0.145355  -0.684944   0.032576
H  -1.240099   0.884942   0.857342
H  -1.328667   0.804496  -0.882617
H  -0.293608  -1.203790   0.898226
H   0.775362  -0.061815   0.196026
H  -0.053856  -1.471659  -0.904952
