butane_opt
 OpenBabel08242015423D

 14 13  0  0  0  0  0  0  0  0999 V2000
   -3.9567    0.2826   -0.0233 C   0  0  0  0  0  0  0  0  0  0  0  0
   -2.6728   -0.6318    0.0679 C   0  0  0  0  0  0  0  0  0  0  0  0
   -4.8893   -0.3004    0.2976 H   0  0  0  0  0  0  0  0  0  0  0  0
   -4.0654    1.1555   -1.0743 H   0  0  0  0  0  0  0  0  0  0  0  0
   -3.9508    0.7185    0.6674 H   0  0  0  0  0  0  0  0  0  0  0  0
   -1.3898    0.1502    0.0567 C   0  0  0  0  0  0  0  0  0  0  0  0
   -2.6148   -1.2657   -0.7621 H   0  0  0  0  0  0  0  0  0  0  0  0
   -2.7682   -1.2699    0.9682 H   0  0  0  0  0  0  0  0  0  0  0  0
   -0.1850   -0.6774   -0.0125 C   0  0  0  0  0  0  0  0  0  0  0  0
   -1.2821    0.9681    1.0062 H   0  0  0  0  0  0  0  0  0  0  0  0
   -1.4189    0.6256   -0.7210 H   0  0  0  0  0  0  0  0  0  0  0  0
   -0.1818   -1.1624    0.7781 H   0  0  0  0  0  0  0  0  0  0  0  0
    0.7347   -0.0492    0.0820 H   0  0  0  0  0  0  0  0  0  0  0  0
   -0.1355   -1.3686   -0.8887 H   0  0  0  0  0  0  0  0  0  0  0  0
  1  2  1  0  0  0  0
  1  3  1  0  0  0  0
  1  5  1  0  0  0  0
  2  8  1  0  0  0  0
  4  1  1  0  0  0  0
  6  2  1  0  0  0  0
  6 10  1  0  0  0  0
  7  2  1  0  0  0  0
  9  6  1  0  0  0  0
  9 13  1  0  0  0  0
  9 12  1  0  0  0  0
 11  6  1  0  0  0  0
 14  9  1  0  0  0  0
M  END
$$$$
