butane_opt
 OpenBabel08242015423D

 14 13  0  0  0  0  0  0  0  0999 V2000
   -3.9232    0.2546    0.0385 C   0  0  0  0  0  0  0  0  0  0  0  0
   -2.7089   -0.5793    0.0060 C   0  0  0  0  0  0  0  0  0  0  0  0
   -4.9600   -0.4320    0.2528 H   0  0  0  0  0  0  0  0  0  0  0  0
   -3.9267    1.0140   -0.9723 H   0  0  0  0  0  0  0  0  0  0  0  0
   -3.8924    0.7260    0.8056 H   0  0  0  0  0  0  0  0  0  0  0  0
   -1.4094    0.1925    0.0078 C   0  0  0  0  0  0  0  0  0  0  0  0
   -2.7854   -1.3529   -0.9012 H   0  0  0  0  0  0  0  0  0  0  0  0
   -2.6700   -1.1866    0.8881 H   0  0  0  0  0  0  0  0  0  0  0  0
   -0.1607   -0.7072    0.0491 C   0  0  0  0  0  0  0  0  0  0  0  0
   -1.4003    0.8900    0.8353 H   0  0  0  0  0  0  0  0  0  0  0  0
   -1.4601    0.8207   -0.8694 H   0  0  0  0  0  0  0  0  0  0  0  0
   -0.1332   -1.3169    0.9614 H   0  0  0  0  0  0  0  0  0  0  0  0
    0.7108   -0.1216    0.0722 H   0  0  0  0  0  0  0  0  0  0  0  0
   -0.0716   -1.4523   -0.8659 H   0  0  0  0  0  0  0  0  0  0  0  0
  1  3  1  0  0  0  0
  1  5  1  0  0  0  0
  2  6  1  0  0  0  0
  2  1  1  0  0  0  0
  2  8  1  0  0  0  0
  4  1  1  0  0  0  0
  6  9  1  0  0  0  0
  6 10  1  0  0  0  0
  7  2  1  0  0  0  0
  9 13  1  0  0  0  0
  9 12  1  0  0  0  0
 11  6  1  0  0  0  0
 14  9  1  0  0  0  0
M  END
$$$$
