butane_opt
 OpenBabel08242015423D

 14 13  0  0  0  0  0  0  0  0999 V2000
   -3.9383    0.2498    0.0661 C   0  0  0  0  0  0  0  0  0  0  0  0
   -2.7060   -0.6023   -0.0293 C   0  0  0  0  0  0  0  0  0  0  0  0
   -4.8554   -0.3792    0.2681 H   0  0  0  0  0  0  0  0  0  0  0  0
   -4.0716    0.9556   -0.8798 H   0  0  0  0  0  0  0  0  0  0  0  0
   -3.8233    0.7857    0.8313 H   0  0  0  0  0  0  0  0  0  0  0  0
   -1.4044    0.2271   -0.0283 C   0  0  0  0  0  0  0  0  0  0  0  0
   -2.8120   -1.3561   -0.9092 H   0  0  0  0  0  0  0  0  0  0  0  0
   -2.7759   -1.1209    0.8157 H   0  0  0  0  0  0  0  0  0  0  0  0
   -0.1584   -0.7224    0.0842 C   0  0  0  0  0  0  0  0  0  0  0  0
   -1.4582    0.8998    0.7870 H   0  0  0  0  0  0  0  0  0  0  0  0
   -1.3407    0.8522   -0.8881 H   0  0  0  0  0  0  0  0  0  0  0  0
   -0.0350   -1.3925    1.0044 H   0  0  0  0  0  0  0  0  0  0  0  0
    0.7816   -0.1318    0.0451 H   0  0  0  0  0  0  0  0  0  0  0  0
   -0.1456   -1.4086   -0.7531 H   0  0  0  0  0  0  0  0  0  0  0  0
  1  3  1  0  0  0  0
  1  5  1  0  0  0  0
  2  6  1  0  0  0  0
  2  1  1  0  0  0  0
  2  8  1  0  0  0  0
  4  1  1  0  0  0  0
  6  9  1  0  0  0  0
  6 10  1  0  0  0  0
  7  2  1  0  0  0  0
  9 12  1  0  0  0  0
 11  6  1  0  0  0  0
 13  9  1  0  0  0  0
 14  9  1  0  0  0  0
M  END
$$$$
