butane_opt
 OpenBabel08242015423D

 14 13  0  0  0  0  0  0  0  0999 V2000
   -3.9791    0.2879    0.0259 C   0  0  0  0  0  0  0  0  0  0  0  0
   -2.7055   -0.6415    0.0400 C   0  0  0  0  0  0  0  0  0  0  0  0
   -4.8943   -0.3240    0.0255 H   0  0  0  0  0  0  0  0  0  0  0  0
   -3.9471    0.8963   -0.8614 H   0  0  0  0  0  0  0  0  0  0  0  0
   -4.0439    0.9806    0.8727 H   0  0  0  0  0  0  0  0  0  0  0  0
   -1.3875    0.1693   -0.0167 C   0  0  0  0  0  0  0  0  0  0  0  0
   -2.7305   -1.2393   -0.7355 H   0  0  0  0  0  0  0  0  0  0  0  0
   -2.6535   -1.3207    0.9828 H   0  0  0  0  0  0  0  0  0  0  0  0
   -0.1454   -0.6849    0.0326 C   0  0  0  0  0  0  0  0  0  0  0  0
   -1.2401    0.8849    0.8573 H   0  0  0  0  0  0  0  0  0  0  0  0
   -1.3287    0.8045   -0.8826 H   0  0  0  0  0  0  0  0  0  0  0  0
   -0.2936   -1.2038    0.8982 H   0  0  0  0  0  0  0  0  0  0  0  0
    0.7754   -0.0618    0.1960 H   0  0  0  0  0  0  0  0  0  0  0  0
   -0.0539   -1.4717   -0.9050 H   0  0  0  0  0  0  0  0  0  0  0  0
  1  2  1  0  0  0  0
  1  5  1  0  0  0  0
  2  8  1  0  0  0  0
  3  1  1  0  0  0  0
  4  1  1  0  0  0  0
  6  9  1  0  0  0  0
  6  2  1  0  0  0  0
  6 10  1  0  0  0  0
  7  2  1  0  0  0  0
  9 13  1  0  0  0  0
  9 12  1  0  0  0  0
 11  6  1  0  0  0  0
 14  9  1  0  0  0  0
M  END
$$$$
