butane_opt
 OpenBabel08242015423D

 14 13  0  0  0  0  0  0  0  0999 V2000
   -3.9347    0.2665   -0.0039 C   0  0  0  0  0  0  0  0  0  0  0  0
   -2.7012   -0.6182    0.0555 C   0  0  0  0  0  0  0  0  0  0  0  0
   -4.8380   -0.3047   -0.0036 H   0  0  0  0  0  0  0  0  0  0  0  0
   -3.9511    0.9362   -0.9403 H   0  0  0  0  0  0  0  0  0  0  0  0
   -4.0261    0.9004    0.8044 H   0  0  0  0  0  0  0  0  0  0  0  0
   -1.3987    0.1745    0.0512 C   0  0  0  0  0  0  0  0  0  0  0  0
   -2.6939   -1.2846   -0.7783 H   0  0  0  0  0  0  0  0  0  0  0  0
   -2.6894   -1.2327    0.9512 H   0  0  0  0  0  0  0  0  0  0  0  0
   -0.1693   -0.6959    0.0051 C   0  0  0  0  0  0  0  0  0  0  0  0
   -1.3472    0.8867    0.9300 H   0  0  0  0  0  0  0  0  0  0  0  0
   -1.4234    0.7826   -0.7990 H   0  0  0  0  0  0  0  0  0  0  0  0
   -0.1138   -1.3091    0.9153 H   0  0  0  0  0  0  0  0  0  0  0  0
    0.7627   -0.0799   -0.1301 H   0  0  0  0  0  0  0  0  0  0  0  0
   -0.2479   -1.2889   -0.8087 H   0  0  0  0  0  0  0  0  0  0  0  0
  1  3  1  0  0  0  0
  1  2  1  0  0  0  0
  1  5  1  0  0  0  0
  2  8  1  0  0  0  0
  4  1  1  0  0  0  0
  6  2  1  0  0  0  0
  6 10  1  0  0  0  0
  7  2  1  0  0  0  0
  9  6  1  0  0  0  0
  9 12  1  0  0  0  0
 11  6  1  0  0  0  0
 13  9  1  0  0  0  0
 14  9  1  0  0  0  0
M  END
$$$$
