butane_opt
 OpenBabel08242015423D

 14 13  0  0  0  0  0  0  0  0999 V2000
   -3.9677    0.2866   -0.0149 C   0  0  0  0  0  0  0  0  0  0  0  0
   -2.6866   -0.6401    0.0996 C   0  0  0  0  0  0  0  0  0  0  0  0
   -4.8828   -0.2853    0.0188 H   0  0  0  0  0  0  0  0  0  0  0  0
   -3.9639    0.9874   -0.9514 H   0  0  0  0  0  0  0  0  0  0  0  0
   -4.0710    0.8539    0.7301 H   0  0  0  0  0  0  0  0  0  0  0  0
   -1.3803    0.1790    0.0291 C   0  0  0  0  0  0  0  0  0  0  0  0
   -2.7721   -1.2942   -0.7443 H   0  0  0  0  0  0  0  0  0  0  0  0
   -2.6685   -1.3098    1.0284 H   0  0  0  0  0  0  0  0  0  0  0  0
   -0.1689   -0.6861   -0.0111 C   0  0  0  0  0  0  0  0  0  0  0  0
   -1.3462    0.7797    0.8827 H   0  0  0  0  0  0  0  0  0  0  0  0
   -1.3724    0.7730   -0.8347 H   0  0  0  0  0  0  0  0  0  0  0  0
   -0.1813   -1.0550    0.7436 H   0  0  0  0  0  0  0  0  0  0  0  0
    0.7864   -0.0517    0.2725 H   0  0  0  0  0  0  0  0  0  0  0  0
   -0.1166   -1.5371   -0.9719 H   0  0  0  0  0  0  0  0  0  0  0  0
  1  3  1  0  0  0  0
  1  2  1  0  0  0  0
  1  5  1  0  0  0  0
  2  8  1  0  0  0  0
  4  1  1  0  0  0  0
  6  2  1  0  0  0  0
  6 10  1  0  0  0  0
  7  2  1  0  0  0  0
  9  6  1  0  0  0  0
  9 13  1  0  0  0  0
  9 12  1  0  0  0  0
 11  6  1  0  0  0  0
 14  9  1  0  0  0  0
M  END
$$$$
