14
butane_opt
C  -3.934320   0.263538  -0.039039
C  -2.709111  -0.618023   0.115923
H  -4.829148  -0.325350  -0.244268
H  -3.851141   0.731280  -0.872796
H  -4.190227   1.019630   0.894994
C  -1.405256   0.194007   0.036439
H  -2.775429  -1.194331  -0.617405
H  -2.795513  -1.297000   1.080707
C  -0.147713  -0.700166  -0.014759
H  -1.275602   0.964792   1.005319
H  -1.493952   0.770272  -0.834888
H  -0.067250  -1.268061   0.846414
H   0.730303  -0.141562  -0.093055
H  -0.118892  -1.410416  -0.904310
