14
butane_opt
C  -3.944759   0.254422  -0.008322
C  -2.696826  -0.600231   0.043797
H  -4.890316  -0.354852   0.147149
H  -3.977024   0.949795  -0.992351
H  -3.924523   0.856338   0.807315
C  -1.398538   0.188430   0.050978
H  -2.726124  -1.218405  -0.758097
H  -2.720189  -1.270538   0.981095
C  -0.167648  -0.698684   0.008117
H  -1.405712   0.905584   0.940326
H  -1.410238   0.767451  -0.818286
H  -0.080112  -1.310097   0.880840
H   0.754082  -0.116198  -0.019445
H  -0.148932  -1.405015  -0.875583
