butane_opt
 OpenBabel08242015423D

 14 13  0  0  0  0  0  0  0  0999 V2000
   -3.9507    0.2844    0.0482 C   0  0  0  0  0  0  0  0  0  0  0  0
   -2.7122   -0.6311    0.0347 C   0  0  0  0  0  0  0  0  0  0  0  0
   -4.8434   -0.2801   -0.1936 H   0  0  0  0  0  0  0  0  0  0  0  0
   -3.9776    0.6191   -0.6404 H   0  0  0  0  0  0  0  0  0  0  0  0
   -4.0988    1.1660    1.0508 H   0  0  0  0  0  0  0  0  0  0  0  0
   -1.3847    0.1776   -0.0456 C   0  0  0  0  0  0  0  0  0  0  0  0
   -2.6659   -1.3757   -0.8888 H   0  0  0  0  0  0  0  0  0  0  0  0
   -2.7216   -1.2329    0.8754 H   0  0  0  0  0  0  0  0  0  0  0  0
   -0.1525   -0.6976    0.0755 C   0  0  0  0  0  0  0  0  0  0  0  0
   -1.4043    0.7390    0.7471 H   0  0  0  0  0  0  0  0  0  0  0  0
   -1.3440    0.9065   -1.0403 H   0  0  0  0  0  0  0  0  0  0  0  0
   -0.2175   -1.3082    1.0293 H   0  0  0  0  0  0  0  0  0  0  0  0
    0.8173   -0.0231   -0.0732 H   0  0  0  0  0  0  0  0  0  0  0  0
   -0.1659   -1.2830   -0.7510 H   0  0  0  0  0  0  0  0  0  0  0  0
  1  5  1  0  0  0  0
  2  1  1  0  0  0  0
  2  8  1  0  0  0  0
  3  1  1  0  0  0  0
  4  1  1  0  0  0  0
  6  2  1  0  0  0  0
  6  9  1  0  0  0  0
  6 10  1  0  0  0  0
  7  2  1  0  0  0  0
  9 12  1  0  0  0  0
 11  6  1  0  0  0  0
 13  9  1  0  0  0  0
 14  9  1  0  0  0  0
M  END
$$$$
