butane_opt
 OpenBabel08242015423D

 14 13  0  0  0  0  0  0  0  0999 V2000
   -3.9504    0.2797    0.0215 C   0  0  0  0  0  0  0  0  0  0  0  0
   -2.6978   -0.6417    0.0509 C   0  0  0  0  0  0  0  0  0  0  0  0
   -4.8814   -0.3001   -0.2095 H   0  0  0  0  0  0  0  0  0  0  0  0
   -3.9593    0.7171   -0.7376 H   0  0  0  0  0  0  0  0  0  0  0  0
   -4.1028    1.1623    0.9835 H   0  0  0  0  0  0  0  0  0  0  0  0
   -1.4162    0.1669    0.0010 C   0  0  0  0  0  0  0  0  0  0  0  0
   -2.7331   -1.3077   -0.7790 H   0  0  0  0  0  0  0  0  0  0  0  0
   -2.6999   -1.2877    0.9319 H   0  0  0  0  0  0  0  0  0  0  0  0
   -0.1370   -0.6827    0.0273 C   0  0  0  0  0  0  0  0  0  0  0  0
   -1.3374    0.8227    0.8029 H   0  0  0  0  0  0  0  0  0  0  0  0
   -1.3904    0.9019   -0.9746 H   0  0  0  0  0  0  0  0  0  0  0  0
   -0.1273   -1.3420    0.9801 H   0  0  0  0  0  0  0  0  0  0  0  0
    0.8087   -0.0359    0.0152 H   0  0  0  0  0  0  0  0  0  0  0  0
   -0.1868   -1.2768   -0.7499 H   0  0  0  0  0  0  0  0  0  0  0  0
  1  2  1  0  0  0  0
  1  5  1  0  0  0  0
  2  8  1  0  0  0  0
  3  1  1  0  0  0  0
  4  1  1  0  0  0  0
  6  9  1  0  0  0  0
  6  2  1  0  0  0  0
  6 10  1  0  0  0  0
  7  2  1  0  0  0  0
  9 12  1  0  0  0  0
 11  6  1  0  0  0  0
 13  9  1  0  0  0  0
 14  9  1  0  0  0  0
M  END
$$$$
