butane_opt
 OpenBabel08242015423D

 14 13  0  0  0  0  0  0  0  0999 V2000
   -3.9321    0.2830    0.0628 C   0  0  0  0  0  0  0  0  0  0  0  0
   -2.6627   -0.6431   -0.0331 C   0  0  0  0  0  0  0  0  0  0  0  0
   -4.8835   -0.3371   -0.0409 H   0  0  0  0  0  0  0  0  0  0  0  0
   -4.0412    0.8404   -0.7723 H   0  0  0  0  0  0  0  0  0  0  0  0
   -3.9700    1.0429    1.0155 H   0  0  0  0  0  0  0  0  0  0  0  0
   -1.4040    0.1686   -0.0121 C   0  0  0  0  0  0  0  0  0  0  0  0
   -2.7015   -1.3468   -0.8705 H   0  0  0  0  0  0  0  0  0  0  0  0
   -2.7160   -1.2459    0.8823 H   0  0  0  0  0  0  0  0  0  0  0  0
   -0.1913   -0.6808    0.0739 C   0  0  0  0  0  0  0  0  0  0  0  0
   -1.4279    0.8615    0.8132 H   0  0  0  0  0  0  0  0  0  0  0  0
   -1.3108    0.8372   -0.9044 H   0  0  0  0  0  0  0  0  0  0  0  0
   -0.0922   -1.4711    1.1108 H   0  0  0  0  0  0  0  0  0  0  0  0
    0.7117   -0.0811   -0.1906 H   0  0  0  0  0  0  0  0  0  0  0  0
   -0.2996   -1.1107   -0.6779 H   0  0  0  0  0  0  0  0  0  0  0  0
  1  5  1  0  0  0  0
  2  6  1  0  0  0  0
  2  1  1  0  0  0  0
  2  8  1  0  0  0  0
  3  1  1  0  0  0  0
  4  1  1  0  0  0  0
  6  9  1  0  0  0  0
  6 10  1  0  0  0  0
  7  2  1  0  0  0  0
  9 12  1  0  0  0  0
 11  6  1  0  0  0  0
 13  9  1  0  0  0  0
 14  9  1  0  0  0  0
M  END
$$$$
