14
butane_opt
C  -3.917560   0.247955  -0.020031
C  -2.692954  -0.601630   0.086679
H  -4.870667  -0.432892  -0.102215
H  -3.777456   0.808868  -0.913538
H  -4.019581   1.021528   0.913003
C  -1.422755   0.207782   0.036928
H  -2.620175  -1.177116  -0.682728
H  -2.805152  -1.384689   1.041255
C  -0.180179  -0.703753  -0.006181
H  -1.448624   0.943086   0.936857
H  -1.471758   0.809178  -0.840707
H  -0.024517  -1.271278   0.843926
H   0.686886  -0.145676  -0.018302
H  -0.113526  -1.449704  -0.894827
