butane_opt
 OpenBabel08242015423D

 14 13  0  0  0  0  0  0  0  0999 V2000
   -3.9250    0.2443    0.0042 C   0  0  0  0  0  0  0  0  0  0  0  0
   -2.6842   -0.6075    0.0750 C   0  0  0  0  0  0  0  0  0  0  0  0
   -4.9056   -0.3815    0.0167 H   0  0  0  0  0  0  0  0  0  0  0  0
   -3.9378    0.9007   -0.9174 H   0  0  0  0  0  0  0  0  0  0  0  0
   -3.8915    0.8159    0.7860 H   0  0  0  0  0  0  0  0  0  0  0  0
   -1.4205    0.2175    0.0065 C   0  0  0  0  0  0  0  0  0  0  0  0
   -2.7080   -1.1972   -0.7520 H   0  0  0  0  0  0  0  0  0  0  0  0
   -2.7144   -1.2166    0.9790 H   0  0  0  0  0  0  0  0  0  0  0  0
   -0.1798   -0.7158    0.0321 C   0  0  0  0  0  0  0  0  0  0  0  0
   -1.3905    0.8730    0.8711 H   0  0  0  0  0  0  0  0  0  0  0  0
   -1.4424    0.9235   -0.9200 H   0  0  0  0  0  0  0  0  0  0  0  0
   -0.1166   -1.1121    0.7180 H   0  0  0  0  0  0  0  0  0  0  0  0
    0.6790   -0.1430    0.1886 H   0  0  0  0  0  0  0  0  0  0  0  0
   -0.0702   -1.6245   -0.9765 H   0  0  0  0  0  0  0  0  0  0  0  0
  1  3  1  0  0  0  0
  1  2  1  0  0  0  0
  1  5  1  0  0  0  0
  2  8  1  0  0  0  0
  4  1  1  0  0  0  0
  6  9  1  0  0  0  0
  6  2  1  0  0  0  0
  6 10  1  0  0  0  0
  7  2  1  0  0  0  0
  9 13  1  0  0  0  0
  9 12  1  0  0  0  0
 11  6  1  0  0  0  0
 14  9  1  0  0  0  0
M  END
$$$$
