14
butane_opt
C  -3.924983   0.244253   0.004176
C  -2.684234  -0.607471   0.074978
H  -4.905584  -0.381532   0.016701
H  -3.937772   0.900747  -0.917435
H  -3.891543   0.815852   0.785987
C  -1.420502   0.217494   0.006487
H  -2.707990  -1.197240  -0.752017
H  -2.714404  -1.216643   0.979048
C  -0.179830  -0.715823   0.032088
H  -1.390466   0.873034   0.871117
H  -1.442427   0.923472  -0.919991
H  -0.116617  -1.112084   0.717963
H   0.678953  -0.143026   0.188595
H  -0.070216  -1.624509  -0.976497
