14
butane_opt
C  -3.933864   0.261125   0.025696
C  -2.693177  -0.618269   0.032008
H  -4.833349  -0.304756  -0.053808
H  -3.950175   0.773857  -0.800348
H  -3.985945   1.065515   0.972099
C  -1.417698   0.185454  -0.014791
H  -2.739519  -1.281321  -0.794637
H  -2.660697  -1.274198   0.953789
C  -0.169785  -0.687561   0.049960
H  -1.413352   0.816862   0.795180
H  -1.360606   0.806697  -0.892484
H  -0.125979  -1.312394   0.949141
H   0.741772  -0.077880  -0.007252
H  -0.124473  -1.370073  -0.793026
