butane_opt
 OpenBabel08242015423D

 14 13  0  0  0  0  0  0  0  0999 V2000
   -3.9207    0.2542   -0.0403 C   0  0  0  0  0  0  0  0  0  0  0  0
   -2.7046   -0.5825    0.1087 C   0  0  0  0  0  0  0  0  0  0  0  0
   -4.8912   -0.3881   -0.1495 H   0  0  0  0  0  0  0  0  0  0  0  0
   -3.8093    0.7645   -0.9020 H   0  0  0  0  0  0  0  0  0  0  0  0
   -4.0359    0.9582    0.8286 H   0  0  0  0  0  0  0  0  0  0  0  0
   -1.4153    0.1835    0.0730 C   0  0  0  0  0  0  0  0  0  0  0  0
   -2.6845   -1.2556   -0.6952 H   0  0  0  0  0  0  0  0  0  0  0  0
   -2.7598   -1.2637    1.0667 H   0  0  0  0  0  0  0  0  0  0  0  0
   -0.1519   -0.7020   -0.0324 C   0  0  0  0  0  0  0  0  0  0  0  0
   -1.4259    0.7988    0.8598 H   0  0  0  0  0  0  0  0  0  0  0  0
   -1.5139    0.8418   -0.7944 H   0  0  0  0  0  0  0  0  0  0  0  0
   -0.0514   -1.2550    0.8618 H   0  0  0  0  0  0  0  0  0  0  0  0
    0.7000   -0.1422   -0.0097 H   0  0  0  0  0  0  0  0  0  0  0  0
   -0.2324   -1.3831   -0.9265 H   0  0  0  0  0  0  0  0  0  0  0  0
  1  2  1  0  0  0  0
  1  5  1  0  0  0  0
  2  8  1  0  0  0  0
  3  1  1  0  0  0  0
  4  1  1  0  0  0  0
  6  2  1  0  0  0  0
  6 10  1  0  0  0  0
  7  2  1  0  0  0  0
  9 13  1  0  0  0  0
  9  6  1  0  0  0  0
  9 12  1  0  0  0  0
 11  6  1  0  0  0  0
 14  9  1  0  0  0  0
M  END
$$$$
