14
butane_opt
C  -3.925319   0.248463   0.064477
C  -2.689633  -0.601699  -0.000503
H  -4.856201  -0.351521  -0.040737
H  -3.858542   0.731201  -0.772058
H  -3.906435   0.998089   1.031459
C  -1.413764   0.218982  -0.044063
H  -2.837605  -1.280365  -0.836834
H  -2.637931  -1.184415   0.895867
C  -0.183063  -0.711260   0.079996
H  -1.472381   0.758965   0.684357
H  -1.330228   0.944080  -0.994471
H  -0.240262  -1.320821   0.975371
H   0.721970  -0.161037   0.107784
H  -0.058129  -1.469723  -0.819275
