14
butane_opt
C  -3.946960   0.269932  -0.018727
C  -2.694204  -0.614769   0.079148
H  -4.819195  -0.271556   0.074111
H  -4.011625   0.985612  -0.989658
H  -3.893515   0.817059   0.786594
C  -1.405988   0.155818   0.031782
H  -2.759068  -1.215896  -0.731285
H  -2.701486  -1.344959   1.022442
C  -0.159972  -0.677187   0.000277
H  -1.417260   0.924485   0.975631
H  -1.463221   0.747427  -0.855927
H  -0.157476  -1.113831   0.795742
H   0.793247  -0.063098   0.151243
H  -0.131361  -1.525653  -0.938175
