14
butane_opt
C  -3.927680   0.274047  -0.042593
C  -2.679317  -0.625657   0.083762
H  -4.775280  -0.236538  -0.033926
H  -3.953737   0.907349  -0.945989
H  -4.022512   0.897414   0.771138
C  -1.405367   0.161677   0.096800
H  -2.667757  -1.234195  -0.739173
H  -2.766163  -1.342246   1.022254
C  -0.198765  -0.682020  -0.025913
H  -1.372158   0.973038   1.009234
H  -1.337880   0.737022  -0.743826
H  -0.086568  -1.389466   0.856536
H   0.773940  -0.034465  -0.272438
H  -0.290739  -1.271165  -0.834967
