butane_opt
 OpenBabel08242015423D

 14 13  0  0  0  0  0  0  0  0999 V2000
   -3.9470    0.2699   -0.0187 C   0  0  0  0  0  0  0  0  0  0  0  0
   -2.6942   -0.6148    0.0791 C   0  0  0  0  0  0  0  0  0  0  0  0
   -4.8192   -0.2716    0.0741 H   0  0  0  0  0  0  0  0  0  0  0  0
   -4.0116    0.9856   -0.9897 H   0  0  0  0  0  0  0  0  0  0  0  0
   -3.8935    0.8171    0.7866 H   0  0  0  0  0  0  0  0  0  0  0  0
   -1.4060    0.1558    0.0318 C   0  0  0  0  0  0  0  0  0  0  0  0
   -2.7591   -1.2159   -0.7313 H   0  0  0  0  0  0  0  0  0  0  0  0
   -2.7015   -1.3450    1.0224 H   0  0  0  0  0  0  0  0  0  0  0  0
   -0.1600   -0.6772    0.0003 C   0  0  0  0  0  0  0  0  0  0  0  0
   -1.4173    0.9245    0.9756 H   0  0  0  0  0  0  0  0  0  0  0  0
   -1.4632    0.7474   -0.8559 H   0  0  0  0  0  0  0  0  0  0  0  0
   -0.1575   -1.1138    0.7957 H   0  0  0  0  0  0  0  0  0  0  0  0
    0.7932   -0.0631    0.1512 H   0  0  0  0  0  0  0  0  0  0  0  0
   -0.1314   -1.5257   -0.9382 H   0  0  0  0  0  0  0  0  0  0  0  0
  1  3  1  0  0  0  0
  1  2  1  0  0  0  0
  1  5  1  0  0  0  0
  2  8  1  0  0  0  0
  4  1  1  0  0  0  0
  6  2  1  0  0  0  0
  6 10  1  0  0  0  0
  7  2  1  0  0  0  0
  9  6  1  0  0  0  0
  9 13  1  0  0  0  0
  9 12  1  0  0  0  0
 11  6  1  0  0  0  0
 14  9  1  0  0  0  0
M  END
$$$$
