14
butane_opt
C  -3.945827   0.292484   0.051319
C  -2.710213  -0.643699   0.012572
H  -4.870960  -0.270305   0.079185
H  -4.097688   0.802082  -0.714016
H  -3.952077   1.067799   0.998043
C  -1.401172   0.170286  -0.053879
H  -2.729197  -1.392316  -0.884835
H  -2.721668  -1.276138   0.876486
C  -0.150190  -0.685431   0.084110
H  -1.398586   0.753475   0.689945
H  -1.266644   0.873613  -1.023125
H  -0.286310  -1.207235   0.950559
H   0.842950  -0.033690   0.180477
H  -0.061388  -1.388417  -0.837890
