14
butane_opt
C  -3.931877   0.249001  -0.048671
C  -2.703134  -0.585473   0.080895
H  -4.858573  -0.374571   0.101571
H  -3.882301   0.928064  -1.001102
H  -3.844321   0.782953   0.752573
C  -1.420118   0.183400   0.102583
H  -2.689137  -1.233935  -0.748297
H  -2.793358  -1.167170   0.938837
C  -0.162718  -0.708118  -0.015160
H  -1.336826   0.920920   0.969778
H  -1.475458   0.835360  -0.772720
H   0.031501  -1.323779   0.864342
H   0.681528  -0.145400  -0.248649
H  -0.245156  -1.367778  -0.859909
