butane_opt
 OpenBabel08242015423D

 14 13  0  0  0  0  0  0  0  0999 V2000
   -3.9195    0.2480   -0.0203 C   0  0  0  0  0  0  0  0  0  0  0  0
   -2.7150   -0.6008    0.0741 C   0  0  0  0  0  0  0  0  0  0  0  0
   -4.8155   -0.3346    0.2255 H   0  0  0  0  0  0  0  0  0  0  0  0
   -3.9989    1.0659   -1.0242 H   0  0  0  0  0  0  0  0  0  0  0  0
   -3.8599    0.7249    0.6908 H   0  0  0  0  0  0  0  0  0  0  0  0
   -1.4267    0.2030    0.0489 C   0  0  0  0  0  0  0  0  0  0  0  0
   -2.6261   -1.3031   -0.7782 H   0  0  0  0  0  0  0  0  0  0  0  0
   -2.7827   -1.2962    0.9804 H   0  0  0  0  0  0  0  0  0  0  0  0
   -0.1491   -0.7020   -0.0118 C   0  0  0  0  0  0  0  0  0  0  0  0
   -1.3685    0.9721    0.9737 H   0  0  0  0  0  0  0  0  0  0  0  0
   -1.4931    0.7986   -0.7759 H   0  0  0  0  0  0  0  0  0  0  0  0
   -0.1565   -1.2384    0.8626 H   0  0  0  0  0  0  0  0  0  0  0  0
    0.7366   -0.1096    0.1495 H   0  0  0  0  0  0  0  0  0  0  0  0
   -0.1368   -1.5311   -0.9752 H   0  0  0  0  0  0  0  0  0  0  0  0
  1  2  1  0  0  0  0
  1  3  1  0  0  0  0
  1  5  1  0  0  0  0
  2  8  1  0  0  0  0
  4  1  1  0  0  0  0
  6  2  1  0  0  0  0
  6 10  1  0  0  0  0
  7  2  1  0  0  0  0
  9  6  1  0  0  0  0
  9 13  1  0  0  0  0
  9 12  1  0  0  0  0
 11  6  1  0  0  0  0
 14  9  1  0  0  0  0
M  END
$$$$
