butane_opt
 OpenBabel08242015423D

 14 13  0  0  0  0  0  0  0  0999 V2000
   -3.9509    0.2716    0.0395 C   0  0  0  0  0  0  0  0  0  0  0  0
   -2.6968   -0.6363    0.0172 C   0  0  0  0  0  0  0  0  0  0  0  0
   -4.8231   -0.2830    0.0878 H   0  0  0  0  0  0  0  0  0  0  0  0
   -4.0584    0.8959   -0.8145 H   0  0  0  0  0  0  0  0  0  0  0  0
   -3.9787    0.9873    0.9400 H   0  0  0  0  0  0  0  0  0  0  0  0
   -1.3921    0.1713   -0.0184 C   0  0  0  0  0  0  0  0  0  0  0  0
   -2.7289   -1.3203   -0.8644 H   0  0  0  0  0  0  0  0  0  0  0  0
   -2.6946   -1.2486    0.9151 H   0  0  0  0  0  0  0  0  0  0  0  0
   -0.1573   -0.6788    0.0569 C   0  0  0  0  0  0  0  0  0  0  0  0
   -1.4388    0.7956    0.7804 H   0  0  0  0  0  0  0  0  0  0  0  0
   -1.3583    0.8935   -0.9829 H   0  0  0  0  0  0  0  0  0  0  0  0
   -0.2465   -1.2167    0.9095 H   0  0  0  0  0  0  0  0  0  0  0  0
    0.7434   -0.1124    0.1437 H   0  0  0  0  0  0  0  0  0  0  0  0
   -0.0700   -1.3992   -0.8240 H   0  0  0  0  0  0  0  0  0  0  0  0
  1  3  1  0  0  0  0
  1  5  1  0  0  0  0
  2  1  1  0  0  0  0
  2  8  1  0  0  0  0
  4  1  1  0  0  0  0
  6  2  1  0  0  0  0
  6  9  1  0  0  0  0
  6 10  1  0  0  0  0
  7  2  1  0  0  0  0
  9 13  1  0  0  0  0
  9 12  1  0  0  0  0
 11  6  1  0  0  0  0
 14  9  1  0  0  0  0
M  END
$$$$
