14
butane_opt
C  -3.919515   0.247961  -0.020312
C  -2.714955  -0.600826   0.074083
H  -4.815540  -0.334649   0.225451
H  -3.998866   1.065881  -1.024210
H  -3.859922   0.724900   0.690835
C  -1.426720   0.203023   0.048893
H  -2.626128  -1.303065  -0.778190
H  -2.782710  -1.296228   0.980434
C  -0.149069  -0.702026  -0.011834
H  -1.368454   0.972149   0.973724
H  -1.493115   0.798560  -0.775867
H  -0.156543  -1.238448   0.862555
H   0.736640  -0.109575   0.149471
H  -0.136774  -1.531148  -0.975170
