butane_opt
 OpenBabel08242015423D

 14 13  0  0  0  0  0  0  0  0999 V2000
   -3.9620    0.2575    0.0058 C   0  0  0  0  0  0  0  0  0  0  0  0
   -2.7101   -0.5949    0.0704 C   0  0  0  0  0  0  0  0  0  0  0  0
   -4.8968   -0.3694   -0.0957 H   0  0  0  0  0  0  0  0  0  0  0  0
   -3.8695    0.7582   -0.8754 H   0  0  0  0  0  0  0  0  0  0  0  0
   -4.0407    0.9083    0.8646 H   0  0  0  0  0  0  0  0  0  0  0  0
   -1.4061    0.2016    0.0215 C   0  0  0  0  0  0  0  0  0  0  0  0
   -2.7330   -1.3066   -0.8020 H   0  0  0  0  0  0  0  0  0  0  0  0
   -2.7575   -1.2191    0.9556 H   0  0  0  0  0  0  0  0  0  0  0  0
   -0.1284   -0.6970    0.0053 C   0  0  0  0  0  0  0  0  0  0  0  0
   -1.2950    0.8290    0.9027 H   0  0  0  0  0  0  0  0  0  0  0  0
   -1.5050    0.8707   -0.8861 H   0  0  0  0  0  0  0  0  0  0  0  0
   -0.0541   -1.3779    0.9624 H   0  0  0  0  0  0  0  0  0  0  0  0
    0.7077   -0.1771    0.0532 H   0  0  0  0  0  0  0  0  0  0  0  0
   -0.1022   -1.4004   -0.8555 H   0  0  0  0  0  0  0  0  0  0  0  0
  1  2  1  0  0  0  0
  1  5  1  0  0  0  0
  2  8  1  0  0  0  0
  3  1  1  0  0  0  0
  4  1  1  0  0  0  0
  6  2  1  0  0  0  0
  6 10  1  0  0  0  0
  7  2  1  0  0  0  0
  9  6  1  0  0  0  0
  9 13  1  0  0  0  0
  9 12  1  0  0  0  0
 11  6  1  0  0  0  0
 14  9  1  0  0  0  0
M  END
$$$$
