butane_opt
 OpenBabel08242015423D

 14 13  0  0  0  0  0  0  0  0999 V2000
   -3.9534    0.2656    0.0333 C   0  0  0  0  0  0  0  0  0  0  0  0
   -2.6883   -0.6391    0.0040 C   0  0  0  0  0  0  0  0  0  0  0  0
   -4.8073   -0.2312    0.0597 H   0  0  0  0  0  0  0  0  0  0  0  0
   -4.0165    0.8805   -0.8303 H   0  0  0  0  0  0  0  0  0  0  0  0
   -4.0135    1.0485    0.9302 H   0  0  0  0  0  0  0  0  0  0  0  0
   -1.3908    0.1670    0.0027 C   0  0  0  0  0  0  0  0  0  0  0  0
   -2.7367   -1.3828   -0.8928 H   0  0  0  0  0  0  0  0  0  0  0  0
   -2.6687   -1.2271    0.8733 H   0  0  0  0  0  0  0  0  0  0  0  0
   -0.1697   -0.6784    0.0534 C   0  0  0  0  0  0  0  0  0  0  0  0
   -1.3353    0.9369    0.8878 H   0  0  0  0  0  0  0  0  0  0  0  0
   -1.4729    0.7914   -0.8689 H   0  0  0  0  0  0  0  0  0  0  0  0
   -0.1249   -1.4606    1.0514 H   0  0  0  0  0  0  0  0  0  0  0  0
    0.7410   -0.0973   -0.1839 H   0  0  0  0  0  0  0  0  0  0  0  0
   -0.1650   -1.1043   -0.6750 H   0  0  0  0  0  0  0  0  0  0  0  0
  1  3  1  0  0  0  0
  1  5  1  0  0  0  0
  2  1  1  0  0  0  0
  2  8  1  0  0  0  0
  4  1  1  0  0  0  0
  6  2  1  0  0  0  0
  6  9  1  0  0  0  0
  6 10  1  0  0  0  0
  7  2  1  0  0  0  0
  9 12  1  0  0  0  0
 11  6  1  0  0  0  0
 13  9  1  0  0  0  0
 14  9  1  0  0  0  0
M  END
$$$$
