butane_opt
 OpenBabel08242015423D

 14 13  0  0  0  0  0  0  0  0999 V2000
   -3.9581    0.2703    0.0416 C   0  0  0  0  0  0  0  0  0  0  0  0
   -2.6993   -0.6273    0.0078 C   0  0  0  0  0  0  0  0  0  0  0  0
   -4.8596   -0.3172    0.0023 H   0  0  0  0  0  0  0  0  0  0  0  0
   -4.0518    0.8056   -0.8068 H   0  0  0  0  0  0  0  0  0  0  0  0
   -3.9994    1.0574    0.9674 H   0  0  0  0  0  0  0  0  0  0  0  0
   -1.3923    0.1833   -0.0153 C   0  0  0  0  0  0  0  0  0  0  0  0
   -2.7039   -1.3356   -0.8750 H   0  0  0  0  0  0  0  0  0  0  0  0
   -2.6666   -1.2515    0.8854 H   0  0  0  0  0  0  0  0  0  0  0  0
   -0.1616   -0.6829    0.0576 C   0  0  0  0  0  0  0  0  0  0  0  0
   -1.3421    0.8494    0.8077 H   0  0  0  0  0  0  0  0  0  0  0  0
   -1.3782    0.7845   -0.8868 H   0  0  0  0  0  0  0  0  0  0  0  0
   -0.0928   -1.4405    1.0457 H   0  0  0  0  0  0  0  0  0  0  0  0
    0.7600   -0.1042   -0.0583 H   0  0  0  0  0  0  0  0  0  0  0  0
   -0.1499   -1.2358   -0.7160 H   0  0  0  0  0  0  0  0  0  0  0  0
  1  5  1  0  0  0  0
  2  1  1  0  0  0  0
  2  8  1  0  0  0  0
  3  1  1  0  0  0  0
  4  1  1  0  0  0  0
  6  2  1  0  0  0  0
  6  9  1  0  0  0  0
  6 10  1  0  0  0  0
  7  2  1  0  0  0  0
  9 12  1  0  0  0  0
 11  6  1  0  0  0  0
 13  9  1  0  0  0  0
 14  9  1  0  0  0  0
M  END
$$$$
