butane_opt
 OpenBabel08242015423D

 14 13  0  0  0  0  0  0  0  0999 V2000
   -3.9494    0.2621    0.0895 C   0  0  0  0  0  0  0  0  0  0  0  0
   -2.6811   -0.6338   -0.0626 C   0  0  0  0  0  0  0  0  0  0  0  0
   -4.8512   -0.3666    0.3315 H   0  0  0  0  0  0  0  0  0  0  0  0
   -4.0370    1.0512   -0.8823 H   0  0  0  0  0  0  0  0  0  0  0  0
   -3.8647    0.8404    0.9288 H   0  0  0  0  0  0  0  0  0  0  0  0
   -1.3990    0.1942   -0.0461 C   0  0  0  0  0  0  0  0  0  0  0  0
   -2.7340   -1.3216   -0.9452 H   0  0  0  0  0  0  0  0  0  0  0  0
   -2.5881   -1.1664    0.7825 H   0  0  0  0  0  0  0  0  0  0  0  0
   -0.1784   -0.6869    0.0949 C   0  0  0  0  0  0  0  0  0  0  0  0
   -1.4837    0.8963    0.7974 H   0  0  0  0  0  0  0  0  0  0  0  0
   -1.3524    0.7675   -0.9286 H   0  0  0  0  0  0  0  0  0  0  0  0
   -0.2305   -1.3743    1.0478 H   0  0  0  0  0  0  0  0  0  0  0  0
    0.6937   -0.1240    0.0803 H   0  0  0  0  0  0  0  0  0  0  0  0
   -0.0737   -1.2994   -0.6884 H   0  0  0  0  0  0  0  0  0  0  0  0
  1  3  1  0  0  0  0
  1  5  1  0  0  0  0
  2  6  1  0  0  0  0
  2  1  1  0  0  0  0
  2  8  1  0  0  0  0
  4  1  1  0  0  0  0
  6  9  1  0  0  0  0
  6 10  1  0  0  0  0
  7  2  1  0  0  0  0
  9 12  1  0  0  0  0
 11  6  1  0  0  0  0
 13  9  1  0  0  0  0
 14  9  1  0  0  0  0
M  END
$$$$
