butane_opt
 OpenBabel08242015423D

 14 13  0  0  0  0  0  0  0  0999 V2000
   -3.9627    0.2738    0.0640 C   0  0  0  0  0  0  0  0  0  0  0  0
   -2.6957   -0.6268   -0.0037 C   0  0  0  0  0  0  0  0  0  0  0  0
   -4.8535   -0.2731    0.1340 H   0  0  0  0  0  0  0  0  0  0  0  0
   -4.0701    0.9598   -0.8907 H   0  0  0  0  0  0  0  0  0  0  0  0
   -3.9896    0.9518    0.9551 H   0  0  0  0  0  0  0  0  0  0  0  0
   -1.3865    0.1579   -0.0448 C   0  0  0  0  0  0  0  0  0  0  0  0
   -2.7342   -1.3034   -0.8305 H   0  0  0  0  0  0  0  0  0  0  0  0
   -2.7582   -1.1967    0.8831 H   0  0  0  0  0  0  0  0  0  0  0  0
   -0.1579   -0.6897    0.0642 C   0  0  0  0  0  0  0  0  0  0  0  0
   -1.3596    0.8156    0.7882 H   0  0  0  0  0  0  0  0  0  0  0  0
   -1.3459    0.7870   -0.9133 H   0  0  0  0  0  0  0  0  0  0  0  0
   -0.3236   -1.1959    0.9449 H   0  0  0  0  0  0  0  0  0  0  0  0
    0.8170   -0.0197    0.1717 H   0  0  0  0  0  0  0  0  0  0  0  0
    0.0270   -1.3723   -0.7731 H   0  0  0  0  0  0  0  0  0  0  0  0
  1  3  1  0  0  0  0
  1  5  1  0  0  0  0
  2  1  1  0  0  0  0
  2  8  1  0  0  0  0
  4  1  1  0  0  0  0
  6  2  1  0  0  0  0
  6  9  1  0  0  0  0
  6 10  1  0  0  0  0
  7  2  1  0  0  0  0
  9 13  1  0  0  0  0
  9 12  1  0  0  0  0
 11  6  1  0  0  0  0
 14  9  1  0  0  0  0
M  END
$$$$
