butane_opt
 OpenBabel08242015423D

 14 13  0  0  0  0  0  0  0  0999 V2000
   -3.9254    0.2528    0.0607 C   0  0  0  0  0  0  0  0  0  0  0  0
   -2.7215   -0.6164    0.0164 C   0  0  0  0  0  0  0  0  0  0  0  0
   -4.8611   -0.3299   -0.1906 H   0  0  0  0  0  0  0  0  0  0  0  0
   -3.8851    0.6644   -0.6975 H   0  0  0  0  0  0  0  0  0  0  0  0
   -4.0209    1.1182    1.0695 H   0  0  0  0  0  0  0  0  0  0  0  0
   -1.4207    0.2230   -0.0483 C   0  0  0  0  0  0  0  0  0  0  0  0
   -2.7865   -1.3236   -0.8424 H   0  0  0  0  0  0  0  0  0  0  0  0
   -2.7203   -1.2041    0.8823 H   0  0  0  0  0  0  0  0  0  0  0  0
   -0.1437   -0.7210    0.0627 C   0  0  0  0  0  0  0  0  0  0  0  0
   -1.4219    0.7878    0.7730 H   0  0  0  0  0  0  0  0  0  0  0  0
   -1.3550    0.9230   -1.0053 H   0  0  0  0  0  0  0  0  0  0  0  0
   -0.1058   -1.3852    0.9895 H   0  0  0  0  0  0  0  0  0  0  0  0
    0.7358   -0.1546    0.0631 H   0  0  0  0  0  0  0  0  0  0  0  0
   -0.0613   -1.2340   -0.6709 H   0  0  0  0  0  0  0  0  0  0  0  0
  1  5  1  0  0  0  0
  2  1  1  0  0  0  0
  2  8  1  0  0  0  0
  3  1  1  0  0  0  0
  4  1  1  0  0  0  0
  6  2  1  0  0  0  0
  6  9  1  0  0  0  0
  6 10  1  0  0  0  0
  7  2  1  0  0  0  0
  9 13  1  0  0  0  0
  9 12  1  0  0  0  0
 11  6  1  0  0  0  0
 14  9  1  0  0  0  0
M  END
$$$$
