butane_opt
 OpenBabel08242015423D

 14 13  0  0  0  0  0  0  0  0999 V2000
   -3.9395    0.2718   -0.0118 C   0  0  0  0  0  0  0  0  0  0  0  0
   -2.6652   -0.6343    0.0797 C   0  0  0  0  0  0  0  0  0  0  0  0
   -4.8706   -0.3185    0.1333 H   0  0  0  0  0  0  0  0  0  0  0  0
   -3.9742    0.9616   -0.9942 H   0  0  0  0  0  0  0  0  0  0  0  0
   -4.0143    0.8999    0.7951 H   0  0  0  0  0  0  0  0  0  0  0  0
   -1.4092    0.1805    0.0287 C   0  0  0  0  0  0  0  0  0  0  0  0
   -2.6403   -1.2962   -0.7465 H   0  0  0  0  0  0  0  0  0  0  0  0
   -2.8217   -1.3042    0.9833 H   0  0  0  0  0  0  0  0  0  0  0  0
   -0.1823   -0.6909    0.0050 C   0  0  0  0  0  0  0  0  0  0  0  0
   -1.3725    0.8928    0.9193 H   0  0  0  0  0  0  0  0  0  0  0  0
   -1.4425    0.8285   -0.8590 H   0  0  0  0  0  0  0  0  0  0  0  0
   -0.1781   -1.1381    0.7980 H   0  0  0  0  0  0  0  0  0  0  0  0
    0.7708   -0.0284    0.1493 H   0  0  0  0  0  0  0  0  0  0  0  0
   -0.1302   -1.4919   -0.9639 H   0  0  0  0  0  0  0  0  0  0  0  0
  1  2  1  0  0  0  0
  1  3  1  0  0  0  0
  1  5  1  0  0  0  0
  2  8  1  0  0  0  0
  4  1  1  0  0  0  0
  6  2  1  0  0  0  0
  6 10  1  0  0  0  0
  7  2  1  0  0  0  0
  9  6  1  0  0  0  0
  9 13  1  0  0  0  0
  9 12  1  0  0  0  0
 11  6  1  0  0  0  0
 14  9  1  0  0  0  0
M  END
$$$$
