butane_opt
 OpenBabel08242015423D

 14 13  0  0  0  0  0  0  0  0999 V2000
   -3.9472    0.2713    0.0535 C   0  0  0  0  0  0  0  0  0  0  0  0
   -2.6887   -0.6257   -0.0117 C   0  0  0  0  0  0  0  0  0  0  0  0
   -4.8140   -0.2593    0.0102 H   0  0  0  0  0  0  0  0  0  0  0  0
   -3.9892    0.8730   -0.7970 H   0  0  0  0  0  0  0  0  0  0  0  0
   -3.9404    1.0207    0.9535 H   0  0  0  0  0  0  0  0  0  0  0  0
   -1.3875    0.1601   -0.0190 C   0  0  0  0  0  0  0  0  0  0  0  0
   -2.8091   -1.2854   -0.8872 H   0  0  0  0  0  0  0  0  0  0  0  0
   -2.6506   -1.2323    0.8300 H   0  0  0  0  0  0  0  0  0  0  0  0
   -0.1766   -0.6891    0.0761 C   0  0  0  0  0  0  0  0  0  0  0  0
   -1.3962    0.8873    0.8249 H   0  0  0  0  0  0  0  0  0  0  0  0
   -1.3878    0.7432   -0.8555 H   0  0  0  0  0  0  0  0  0  0  0  0
   -0.1718   -1.4064    1.0187 H   0  0  0  0  0  0  0  0  0  0  0  0
    0.7646   -0.0635   -0.1803 H   0  0  0  0  0  0  0  0  0  0  0  0
   -0.2306   -1.1384   -0.6528 H   0  0  0  0  0  0  0  0  0  0  0  0
  1  5  1  0  0  0  0
  2  1  1  0  0  0  0
  2  8  1  0  0  0  0
  3  1  1  0  0  0  0
  4  1  1  0  0  0  0
  6  2  1  0  0  0  0
  6  9  1  0  0  0  0
  6 10  1  0  0  0  0
  7  2  1  0  0  0  0
  9 12  1  0  0  0  0
 11  6  1  0  0  0  0
 13  9  1  0  0  0  0
 14  9  1  0  0  0  0
M  END
$$$$
