14
butane_opt
C  -3.952733   0.280988   0.048433
C  -2.673873  -0.617464   0.039717
H  -4.875612  -0.282678   0.044842
H  -3.951548   0.897789  -0.829561
H  -3.948886   0.927473   0.876898
C  -1.387528   0.137422  -0.049087
H  -2.787130  -1.321306  -0.843295
H  -2.620460  -1.209115   0.866620
C  -0.200611  -0.678987   0.056126
H  -1.419282   0.829793   0.827254
H  -1.288525   0.841527  -0.988456
H  -0.249173  -1.135525   0.909727
H   0.773471  -0.049138   0.274777
H  -0.094880  -1.437650  -0.861073
