14
butane_opt
C  -3.933186   0.255054   0.031643
C  -2.694675  -0.608017   0.024127
H  -4.860402  -0.369827   0.114683
H  -3.994632   0.843903  -0.852199
H  -3.956114   0.938101   0.899876
C  -1.409564   0.203493  -0.013416
H  -2.756394  -1.341021  -0.860001
H  -2.731605  -1.204546   0.889719
C  -0.159407  -0.709300   0.048137
H  -1.434659   0.908358   0.856706
H  -1.406778   0.842025  -0.910468
H  -0.166810  -1.333493   0.962496
H   0.741888  -0.147002   0.041331
H  -0.085554  -1.307352  -0.779728
