butane_opt
 OpenBabel08242015423D

 14 13  0  0  0  0  0  0  0  0999 V2000
   -3.9332    0.2663    0.0028 C   0  0  0  0  0  0  0  0  0  0  0  0
   -2.6935   -0.6136    0.0702 C   0  0  0  0  0  0  0  0  0  0  0  0
   -4.8490   -0.3099    0.0807 H   0  0  0  0  0  0  0  0  0  0  0  0
   -3.9230    0.9925   -0.9667 H   0  0  0  0  0  0  0  0  0  0  0  0
   -4.0043    0.8581    0.7608 H   0  0  0  0  0  0  0  0  0  0  0  0
   -1.4123    0.1592    0.0085 C   0  0  0  0  0  0  0  0  0  0  0  0
   -2.7145   -1.2102   -0.7204 H   0  0  0  0  0  0  0  0  0  0  0  0
   -2.7009   -1.3409    1.0238 H   0  0  0  0  0  0  0  0  0  0  0  0
   -0.1661   -0.6822    0.0064 C   0  0  0  0  0  0  0  0  0  0  0  0
   -1.3769    0.8890    0.9322 H   0  0  0  0  0  0  0  0  0  0  0  0
   -1.5290    0.7429   -0.8231 H   0  0  0  0  0  0  0  0  0  0  0  0
   -0.2184   -1.0945    0.7636 H   0  0  0  0  0  0  0  0  0  0  0  0
    0.7953   -0.0704    0.2835 H   0  0  0  0  0  0  0  0  0  0  0  0
   -0.0556   -1.4795   -0.9667 H   0  0  0  0  0  0  0  0  0  0  0  0
  1  2  1  0  0  0  0
  1  3  1  0  0  0  0
  1  5  1  0  0  0  0
  2  8  1  0  0  0  0
  4  1  1  0  0  0  0
  6  2  1  0  0  0  0
  6 10  1  0  0  0  0
  7  2  1  0  0  0  0
  9  6  1  0  0  0  0
  9 13  1  0  0  0  0
  9 12  1  0  0  0  0
 11  6  1  0  0  0  0
 14  9  1  0  0  0  0
M  END
$$$$
