14
butane_opt
C  -3.933166   0.266263   0.002756
C  -2.693477  -0.613604   0.070174
H  -4.849016  -0.309930   0.080683
H  -3.922951   0.992547  -0.966679
H  -4.004323   0.858148   0.760848
C  -1.412283   0.159210   0.008491
H  -2.714535  -1.210188  -0.720440
H  -2.700896  -1.340913   1.023804
C  -0.166077  -0.682180   0.006404
H  -1.376932   0.888997   0.932176
H  -1.528950   0.742867  -0.823134
H  -0.218435  -1.094490   0.763571
H   0.795311  -0.070413   0.283519
H  -0.055611  -1.479539  -0.966703
