14
butane_opt
C  -3.942534   0.264925  -0.015648
C  -2.674265  -0.621677   0.091765
H  -4.807804  -0.285073   0.008832
H  -3.916706   1.053207  -1.016209
H  -4.001994   0.850919   0.806424
C  -1.391766   0.164561   0.025897
H  -2.672461  -1.214643  -0.692900
H  -2.713223  -1.398004   1.098486
C  -0.200045  -0.671789  -0.009545
H  -1.383103   0.953474   0.914358
H  -1.439829   0.720811  -0.799406
H  -0.228228  -1.074124   0.766111
H   0.734255  -0.103129   0.224155
H  -0.096806  -1.602311  -1.020576
