14
butane_opt
C  -3.927254   0.241056   0.049585
C  -2.690793  -0.592087  -0.007991
H  -4.901821  -0.407619   0.236954
H  -4.102461   0.950084  -0.883344
H  -3.787751   0.835845   0.884084
C  -1.420372   0.206041  -0.028643
H  -2.739841  -1.316857  -0.912514
H  -2.614181  -1.190963   0.828542
C  -0.169044  -0.714531   0.063615
H  -1.391367   0.976150   0.909111
H  -1.423724   0.808047  -0.921852
H  -0.207200  -1.408760   1.003926
H   0.692970  -0.103339   0.109585
H  -0.041141  -1.312861  -0.737505
