butane_opt
 OpenBabel08242015423D

 14 13  0  0  0  0  0  0  0  0999 V2000
   -3.9276    0.2672   -0.0252 C   0  0  0  0  0  0  0  0  0  0  0  0
   -2.6787   -0.6136    0.0634 C   0  0  0  0  0  0  0  0  0  0  0  0
   -4.8139   -0.2918    0.2599 H   0  0  0  0  0  0  0  0  0  0  0  0
   -4.0376    1.0193   -1.0559 H   0  0  0  0  0  0  0  0  0  0  0  0
   -3.9951    0.7467    0.7126 H   0  0  0  0  0  0  0  0  0  0  0  0
   -1.4163    0.1669    0.0703 C   0  0  0  0  0  0  0  0  0  0  0  0
   -2.7234   -1.2653   -0.7156 H   0  0  0  0  0  0  0  0  0  0  0  0
   -2.6858   -1.2988    0.9797 H   0  0  0  0  0  0  0  0  0  0  0  0
   -0.1776   -0.6865   -0.0079 C   0  0  0  0  0  0  0  0  0  0  0  0
   -1.3617    0.8855    0.9547 H   0  0  0  0  0  0  0  0  0  0  0  0
   -1.3960    0.8248   -0.8503 H   0  0  0  0  0  0  0  0  0  0  0  0
   -0.1917   -1.1367    0.7580 H   0  0  0  0  0  0  0  0  0  0  0  0
    0.7602   -0.0837    0.1356 H   0  0  0  0  0  0  0  0  0  0  0  0
   -0.1741   -1.4735   -0.9751 H   0  0  0  0  0  0  0  0  0  0  0  0
  1  2  1  0  0  0  0
  1  3  1  0  0  0  0
  1  5  1  0  0  0  0
  2  6  1  0  0  0  0
  2  8  1  0  0  0  0
  4  1  1  0  0  0  0
  6 10  1  0  0  0  0
  7  2  1  0  0  0  0
  9  6  1  0  0  0  0
  9 13  1  0  0  0  0
  9 12  1  0  0  0  0
 11  6  1  0  0  0  0
 14  9  1  0  0  0  0
M  END
$$$$
