butane_opt
 OpenBabel08242015423D

 14 13  0  0  0  0  0  0  0  0999 V2000
   -3.9273    0.2411    0.0496 C   0  0  0  0  0  0  0  0  0  0  0  0
   -2.6908   -0.5921   -0.0080 C   0  0  0  0  0  0  0  0  0  0  0  0
   -4.9018   -0.4076    0.2370 H   0  0  0  0  0  0  0  0  0  0  0  0
   -4.1025    0.9501   -0.8833 H   0  0  0  0  0  0  0  0  0  0  0  0
   -3.7878    0.8358    0.8841 H   0  0  0  0  0  0  0  0  0  0  0  0
   -1.4204    0.2060   -0.0286 C   0  0  0  0  0  0  0  0  0  0  0  0
   -2.7398   -1.3169   -0.9125 H   0  0  0  0  0  0  0  0  0  0  0  0
   -2.6142   -1.1910    0.8285 H   0  0  0  0  0  0  0  0  0  0  0  0
   -0.1690   -0.7145    0.0636 C   0  0  0  0  0  0  0  0  0  0  0  0
   -1.3914    0.9761    0.9091 H   0  0  0  0  0  0  0  0  0  0  0  0
   -1.4237    0.8080   -0.9219 H   0  0  0  0  0  0  0  0  0  0  0  0
   -0.2072   -1.4088    1.0039 H   0  0  0  0  0  0  0  0  0  0  0  0
    0.6930   -0.1033    0.1096 H   0  0  0  0  0  0  0  0  0  0  0  0
   -0.0411   -1.3129   -0.7375 H   0  0  0  0  0  0  0  0  0  0  0  0
  1  3  1  0  0  0  0
  1  5  1  0  0  0  0
  2  1  1  0  0  0  0
  2  8  1  0  0  0  0
  4  1  1  0  0  0  0
  6  2  1  0  0  0  0
  6  9  1  0  0  0  0
  6 10  1  0  0  0  0
  7  2  1  0  0  0  0
  9 13  1  0  0  0  0
  9 12  1  0  0  0  0
 11  6  1  0  0  0  0
 14  9  1  0  0  0  0
M  END
$$$$
