14
butane_opt
C  -3.946946   0.261101   0.049277
C  -2.692352  -0.613766  -0.007584
H  -4.813730  -0.320131  -0.021633
H  -4.036661   0.766186  -0.699793
H  -3.987625   1.121086   1.046653
C  -1.406743   0.173618  -0.031273
H  -2.727609  -1.354026  -0.930847
H  -2.609395  -1.192308   0.826635
C  -0.155833  -0.684742   0.077743
H  -1.401108   0.789723   0.809883
H  -1.404427   0.777098  -0.913614
H  -0.201129  -1.508823   1.145335
H   0.770961  -0.037963  -0.189837
H  -0.184873  -1.139591  -0.661777
