butane_opt
 OpenBabel08242015423D

 14 13  0  0  0  0  0  0  0  0999 V2000
   -3.9469    0.2611    0.0493 C   0  0  0  0  0  0  0  0  0  0  0  0
   -2.6924   -0.6138   -0.0076 C   0  0  0  0  0  0  0  0  0  0  0  0
   -4.8137   -0.3201   -0.0216 H   0  0  0  0  0  0  0  0  0  0  0  0
   -4.0367    0.7662   -0.6998 H   0  0  0  0  0  0  0  0  0  0  0  0
   -3.9876    1.1211    1.0467 H   0  0  0  0  0  0  0  0  0  0  0  0
   -1.4067    0.1736   -0.0313 C   0  0  0  0  0  0  0  0  0  0  0  0
   -2.7276   -1.3540   -0.9308 H   0  0  0  0  0  0  0  0  0  0  0  0
   -2.6094   -1.1923    0.8266 H   0  0  0  0  0  0  0  0  0  0  0  0
   -0.1558   -0.6847    0.0777 C   0  0  0  0  0  0  0  0  0  0  0  0
   -1.4011    0.7897    0.8099 H   0  0  0  0  0  0  0  0  0  0  0  0
   -1.4044    0.7771   -0.9136 H   0  0  0  0  0  0  0  0  0  0  0  0
   -0.2011   -1.5088    1.1453 H   0  0  0  0  0  0  0  0  0  0  0  0
    0.7710   -0.0380   -0.1898 H   0  0  0  0  0  0  0  0  0  0  0  0
   -0.1849   -1.1396   -0.6618 H   0  0  0  0  0  0  0  0  0  0  0  0
  1  5  1  0  0  0  0
  2  1  1  0  0  0  0
  2  8  1  0  0  0  0
  3  1  1  0  0  0  0
  4  1  1  0  0  0  0
  6  2  1  0  0  0  0
  6  9  1  0  0  0  0
  6 10  1  0  0  0  0
  7  2  1  0  0  0  0
  9 12  1  0  0  0  0
 11  6  1  0  0  0  0
 13  9  1  0  0  0  0
 14  9  1  0  0  0  0
M  END
$$$$
