14
butane_opt
C  -3.919423   0.261411  -0.007925
C  -2.705372  -0.602486   0.060970
H  -4.854110  -0.398828  -0.045836
H  -3.832453   0.838952  -0.876051
H  -4.075561   0.904510   0.775662
C  -1.421283   0.194994   0.060405
H  -2.684188  -1.326151  -0.807752
H  -2.763709  -1.239982   0.975969
C  -0.154198  -0.701697   0.007618
H  -1.440604   0.940442   0.961659
H  -1.474828   0.813277  -0.832898
H   0.005403  -1.455721   0.940138
H   0.790164  -0.099202  -0.247925
H  -0.292633  -1.273669  -0.835638
