butane_opt
 OpenBabel08242015423D

 14 13  0  0  0  0  0  0  0  0999 V2000
   -3.9578    0.2645    0.0497 C   0  0  0  0  0  0  0  0  0  0  0  0
   -2.6875   -0.6278    0.0162 C   0  0  0  0  0  0  0  0  0  0  0  0
   -4.7990   -0.2643   -0.1286 H   0  0  0  0  0  0  0  0  0  0  0  0
   -3.9198    0.7850   -0.7867 H   0  0  0  0  0  0  0  0  0  0  0  0
   -4.0518    1.1094    1.0273 H   0  0  0  0  0  0  0  0  0  0  0  0
   -1.4087    0.1768   -0.0126 C   0  0  0  0  0  0  0  0  0  0  0  0
   -2.7407   -1.3504   -0.9045 H   0  0  0  0  0  0  0  0  0  0  0  0
   -2.7603   -1.2623    0.9236 H   0  0  0  0  0  0  0  0  0  0  0  0
   -0.1503   -0.6819    0.0628 C   0  0  0  0  0  0  0  0  0  0  0  0
   -1.4554    0.7455    0.7513 H   0  0  0  0  0  0  0  0  0  0  0  0
   -1.3510    0.8951   -0.9750 H   0  0  0  0  0  0  0  0  0  0  0  0
   -0.0922   -1.3284    1.0277 H   0  0  0  0  0  0  0  0  0  0  0  0
    0.7649   -0.0586   -0.1011 H   0  0  0  0  0  0  0  0  0  0  0  0
   -0.1766   -1.3118   -0.7710 H   0  0  0  0  0  0  0  0  0  0  0  0
  1  5  1  0  0  0  0
  2  1  1  0  0  0  0
  2  8  1  0  0  0  0
  3  1  1  0  0  0  0
  4  1  1  0  0  0  0
  6  2  1  0  0  0  0
  6  9  1  0  0  0  0
  6 10  1  0  0  0  0
  7  2  1  0  0  0  0
  9 12  1  0  0  0  0
 11  6  1  0  0  0  0
 13  9  1  0  0  0  0
 14  9  1  0  0  0  0
M  END
$$$$
