14
butane_opt
C  -3.975002   0.268965   0.025307
C  -2.687939  -0.625357   0.024569
H  -4.845479  -0.252817   0.025729
H  -3.986760   0.824830  -0.819579
H  -4.032765   1.007109   0.911251
C  -1.398584   0.170045   0.008856
H  -2.699927  -1.323756  -0.859386
H  -2.774551  -1.189622   0.827258
C  -0.148239  -0.678336   0.037653
H  -1.348385   0.874863   0.885850
H  -1.423786   0.715374  -0.835224
H  -0.081909  -1.535209   1.066005
H   0.829542  -0.019412  -0.182644
H  -0.163417  -1.175271  -0.696564
