14
butane_opt
C  -3.920094   0.243231   0.062811
C  -2.713694  -0.605455   0.021297
H  -4.863596  -0.356030  -0.175123
H  -3.835387   0.744595  -0.785483
H  -4.044106   1.084597   1.003373
C  -1.408887   0.215294  -0.029848
H  -2.753824  -1.239062  -0.861517
H  -2.715360  -1.175635   0.843761
C  -0.167905  -0.726696   0.061507
H  -1.428634   0.837044   0.766078
H  -1.379410   0.912008  -0.970921
H  -0.077452  -1.426889   0.982598
H   0.780000  -0.069452   0.000488
H  -0.168145  -1.311406  -0.720237
