14
butane_opt
C  -3.945539   0.276078  -0.002089
C  -2.697548  -0.622242   0.063980
H  -4.885192  -0.335497   0.019546
H  -3.965808   0.958929  -0.937467
H  -3.985240   0.866142   0.776398
C  -1.395619   0.168217   0.036110
H  -2.642903  -1.254770  -0.739244
H  -2.708134  -1.302362   1.009190
C  -0.170509  -0.690299   0.006807
H  -1.364200   0.909207   0.919291
H  -1.387153   0.793714  -0.846735
H  -0.173886  -1.198241   0.827168
H   0.768504  -0.069662   0.055795
H  -0.166126  -1.427592  -0.921486
