butane_opt
 OpenBabel08242015423D

 14 13  0  0  0  0  0  0  0  0999 V2000
   -3.9401    0.2771    0.0245 C   0  0  0  0  0  0  0  0  0  0  0  0
   -2.6960   -0.6269    0.0250 C   0  0  0  0  0  0  0  0  0  0  0  0
   -4.9159   -0.3541    0.1534 H   0  0  0  0  0  0  0  0  0  0  0  0
   -3.9932    1.1106   -0.9841 H   0  0  0  0  0  0  0  0  0  0  0  0
   -3.9730    0.8186    0.8123 H   0  0  0  0  0  0  0  0  0  0  0  0
   -1.3909    0.1726    0.0287 C   0  0  0  0  0  0  0  0  0  0  0  0
   -2.6585   -1.3778   -0.8730 H   0  0  0  0  0  0  0  0  0  0  0  0
   -2.6747   -1.2164    0.9162 H   0  0  0  0  0  0  0  0  0  0  0  0
   -0.1832   -0.6923    0.0308 C   0  0  0  0  0  0  0  0  0  0  0  0
   -1.3361    0.8957    0.9176 H   0  0  0  0  0  0  0  0  0  0  0  0
   -1.3451    0.7716   -0.8810 H   0  0  0  0  0  0  0  0  0  0  0  0
   -0.2116   -1.2686    0.9365 H   0  0  0  0  0  0  0  0  0  0  0  0
    0.7855   -0.0658   -0.0513 H   0  0  0  0  0  0  0  0  0  0  0  0
   -0.1667   -1.3498   -0.8378 H   0  0  0  0  0  0  0  0  0  0  0  0
  1  2  1  0  0  0  0
  1  3  1  0  0  0  0
  1  5  1  0  0  0  0
  2  6  1  0  0  0  0
  2  8  1  0  0  0  0
  4  1  1  0  0  0  0
  6  9  1  0  0  0  0
  6 10  1  0  0  0  0
  7  2  1  0  0  0  0
  9 12  1  0  0  0  0
 11  6  1  0  0  0  0
 13  9  1  0  0  0  0
 14  9  1  0  0  0  0
M  END
$$$$
