14
butane_opt
C  -3.957847   0.264496   0.049688
C  -2.687461  -0.627811   0.016210
H  -4.799048  -0.264298  -0.128557
H  -3.919797   0.785046  -0.786724
H  -4.051834   1.109386   1.027267
C  -1.408741   0.176830  -0.012648
H  -2.740671  -1.350354  -0.904467
H  -2.760320  -1.262297   0.923634
C  -0.150279  -0.681898   0.062831
H  -1.455447   0.745526   0.751307
H  -1.351041   0.895087  -0.974994
H  -0.092235  -1.328361   1.027723
H   0.764881  -0.058627  -0.101075
H  -0.176565  -1.311766  -0.771005
