butane_opt
 OpenBabel08242015423D

 14 13  0  0  0  0  0  0  0  0999 V2000
   -3.9497    0.2793   -0.0245 C   0  0  0  0  0  0  0  0  0  0  0  0
   -2.6825   -0.6380    0.0562 C   0  0  0  0  0  0  0  0  0  0  0  0
   -4.8110   -0.2760    0.0400 H   0  0  0  0  0  0  0  0  0  0  0  0
   -3.9838    0.8779   -0.8682 H   0  0  0  0  0  0  0  0  0  0  0  0
   -3.9645    1.0370    0.8866 H   0  0  0  0  0  0  0  0  0  0  0  0
   -1.3778    0.1513    0.0428 C   0  0  0  0  0  0  0  0  0  0  0  0
   -2.6623   -1.2451   -0.7019 H   0  0  0  0  0  0  0  0  0  0  0  0
   -2.7122   -1.2700    0.9452 H   0  0  0  0  0  0  0  0  0  0  0  0
   -0.1988   -0.6654    0.0081 C   0  0  0  0  0  0  0  0  0  0  0  0
   -1.3217    0.8932    0.9540 H   0  0  0  0  0  0  0  0  0  0  0  0
   -1.4379    0.7515   -0.7932 H   0  0  0  0  0  0  0  0  0  0  0  0
   -0.1221   -1.3776    0.9578 H   0  0  0  0  0  0  0  0  0  0  0  0
    0.7368   -0.0878   -0.1336 H   0  0  0  0  0  0  0  0  0  0  0  0
   -0.2517   -1.2927   -0.8234 H   0  0  0  0  0  0  0  0  0  0  0  0
  1  3  1  0  0  0  0
  1  2  1  0  0  0  0
  1  5  1  0  0  0  0
  2  8  1  0  0  0  0
  4  1  1  0  0  0  0
  6  2  1  0  0  0  0
  6 10  1  0  0  0  0
  7  2  1  0  0  0  0
  9  6  1  0  0  0  0
  9 12  1  0  0  0  0
 11  6  1  0  0  0  0
 13  9  1  0  0  0  0
 14  9  1  0  0  0  0
M  END
$$$$
