butane_opt
 OpenBabel08242015423D

 14 13  0  0  0  0  0  0  0  0999 V2000
   -3.9201    0.2432    0.0628 C   0  0  0  0  0  0  0  0  0  0  0  0
   -2.7137   -0.6055    0.0213 C   0  0  0  0  0  0  0  0  0  0  0  0
   -4.8636   -0.3560   -0.1751 H   0  0  0  0  0  0  0  0  0  0  0  0
   -3.8354    0.7446   -0.7855 H   0  0  0  0  0  0  0  0  0  0  0  0
   -4.0441    1.0846    1.0034 H   0  0  0  0  0  0  0  0  0  0  0  0
   -1.4089    0.2153   -0.0298 C   0  0  0  0  0  0  0  0  0  0  0  0
   -2.7538   -1.2391   -0.8615 H   0  0  0  0  0  0  0  0  0  0  0  0
   -2.7154   -1.1756    0.8438 H   0  0  0  0  0  0  0  0  0  0  0  0
   -0.1679   -0.7267    0.0615 C   0  0  0  0  0  0  0  0  0  0  0  0
   -1.4286    0.8370    0.7661 H   0  0  0  0  0  0  0  0  0  0  0  0
   -1.3794    0.9120   -0.9709 H   0  0  0  0  0  0  0  0  0  0  0  0
   -0.0775   -1.4269    0.9826 H   0  0  0  0  0  0  0  0  0  0  0  0
    0.7800   -0.0695    0.0005 H   0  0  0  0  0  0  0  0  0  0  0  0
   -0.1681   -1.3114   -0.7202 H   0  0  0  0  0  0  0  0  0  0  0  0
  1  5  1  0  0  0  0
  2  1  1  0  0  0  0
  2  8  1  0  0  0  0
  3  1  1  0  0  0  0
  4  1  1  0  0  0  0
  6  2  1  0  0  0  0
  6  9  1  0  0  0  0
  6 10  1  0  0  0  0
  7  2  1  0  0  0  0
  9 12  1  0  0  0  0
 11  6  1  0  0  0  0
 13  9  1  0  0  0  0
 14  9  1  0  0  0  0
M  END
$$$$
