butane_opt
 OpenBabel08242015423D

 14 13  0  0  0  0  0  0  0  0999 V2000
   -3.9372    0.2493   -0.0249 C   0  0  0  0  0  0  0  0  0  0  0  0
   -2.7128   -0.5929    0.0862 C   0  0  0  0  0  0  0  0  0  0  0  0
   -4.8494   -0.3376    0.1007 H   0  0  0  0  0  0  0  0  0  0  0  0
   -3.9412    0.9027   -0.9662 H   0  0  0  0  0  0  0  0  0  0  0  0
   -3.8597    0.8410    0.7780 H   0  0  0  0  0  0  0  0  0  0  0  0
   -1.4036    0.1988    0.0304 C   0  0  0  0  0  0  0  0  0  0  0  0
   -2.6838   -1.1450   -0.6676 H   0  0  0  0  0  0  0  0  0  0  0  0
   -2.7797   -1.3150    1.0599 H   0  0  0  0  0  0  0  0  0  0  0  0
   -0.1604   -0.7102    0.0042 C   0  0  0  0  0  0  0  0  0  0  0  0
   -1.3775    0.9147    0.8624 H   0  0  0  0  0  0  0  0  0  0  0  0
   -1.5134    0.7968   -0.8101 H   0  0  0  0  0  0  0  0  0  0  0  0
   -0.2365   -1.1019    0.7604 H   0  0  0  0  0  0  0  0  0  0  0  0
    0.8178   -0.1119    0.1891 H   0  0  0  0  0  0  0  0  0  0  0  0
   -0.0367   -1.6596   -1.0493 H   0  0  0  0  0  0  0  0  0  0  0  0
  1  2  1  0  0  0  0
  1  3  1  0  0  0  0
  1  5  1  0  0  0  0
  2  8  1  0  0  0  0
  4  1  1  0  0  0  0
  6  2  1  0  0  0  0
  6 10  1  0  0  0  0
  7  2  1  0  0  0  0
  9  6  1  0  0  0  0
  9 13  1  0  0  0  0
  9 12  1  0  0  0  0
 11  6  1  0  0  0  0
 14  9  1  0  0  0  0
M  END
$$$$
