14
butane_opt
C  -3.919833   0.251146   0.038680
C  -2.703992  -0.586499   0.033966
H  -4.950216  -0.428923  -0.119081
H  -3.878787   0.657828  -0.721133
H  -4.022907   1.138811   1.100628
C  -1.414387   0.180106  -0.036452
H  -2.753733  -1.310529  -0.906323
H  -2.675260  -1.180297   0.898579
C  -0.157758  -0.694743   0.069632
H  -1.451063   0.761492   0.752370
H  -1.441150   0.954748  -1.033018
H  -0.122745  -1.381144   0.985103
H   0.732675  -0.156954   0.011715
H  -0.093519  -1.346314  -0.766488
