14
butane_opt
C  -3.965243   0.270983  -0.028201
C  -2.700444  -0.641956   0.078461
H  -4.812707  -0.203518   0.010836
H  -3.954737   0.954701  -0.996255
H  -4.063815   0.889282   0.784002
C  -1.395133   0.166618   0.086183
H  -2.639383  -1.354151  -0.786306
H  -2.811382  -1.236429   0.935490
C  -0.148548  -0.675444  -0.007423
H  -1.375119   0.969974   0.987522
H  -1.399957   0.805594  -0.830537
H   0.111511  -1.385599   0.905028
H   0.752146  -0.084412  -0.257449
H  -0.335668  -1.257858  -0.843920
