14
butane_opt
C  -3.914266   0.241168   0.058256
C  -2.696364  -0.598964  -0.010895
H  -4.839406  -0.360881   0.129497
H  -4.049029   0.941017  -0.888309
H  -3.875376   0.849411   0.875056
C  -1.417112   0.204790  -0.004602
H  -2.770577  -1.322573  -0.888230
H  -2.745177  -1.068920   0.786753
C  -0.164910  -0.709566   0.065151
H  -1.352834   0.863620   0.829729
H  -1.435938   0.876077  -0.936392
H  -0.184037  -1.459720   1.020222
H   0.683351  -0.136334  -0.021440
H  -0.125474  -1.317441  -0.756927
