butane_opt
 OpenBabel08242015423D

 14 13  0  0  0  0  0  0  0  0999 V2000
   -3.9652    0.2710   -0.0282 C   0  0  0  0  0  0  0  0  0  0  0  0
   -2.7004   -0.6420    0.0785 C   0  0  0  0  0  0  0  0  0  0  0  0
   -4.8127   -0.2035    0.0108 H   0  0  0  0  0  0  0  0  0  0  0  0
   -3.9547    0.9547   -0.9963 H   0  0  0  0  0  0  0  0  0  0  0  0
   -4.0638    0.8893    0.7840 H   0  0  0  0  0  0  0  0  0  0  0  0
   -1.3951    0.1666    0.0862 C   0  0  0  0  0  0  0  0  0  0  0  0
   -2.6394   -1.3542   -0.7863 H   0  0  0  0  0  0  0  0  0  0  0  0
   -2.8114   -1.2364    0.9355 H   0  0  0  0  0  0  0  0  0  0  0  0
   -0.1485   -0.6754   -0.0074 C   0  0  0  0  0  0  0  0  0  0  0  0
   -1.3751    0.9700    0.9875 H   0  0  0  0  0  0  0  0  0  0  0  0
   -1.4000    0.8056   -0.8305 H   0  0  0  0  0  0  0  0  0  0  0  0
    0.1115   -1.3856    0.9050 H   0  0  0  0  0  0  0  0  0  0  0  0
    0.7521   -0.0844   -0.2574 H   0  0  0  0  0  0  0  0  0  0  0  0
   -0.3357   -1.2579   -0.8439 H   0  0  0  0  0  0  0  0  0  0  0  0
  1  3  1  0  0  0  0
  1  2  1  0  0  0  0
  1  5  1  0  0  0  0
  2  6  1  0  0  0  0
  2  8  1  0  0  0  0
  4  1  1  0  0  0  0
  6 10  1  0  0  0  0
  7  2  1  0  0  0  0
  9  6  1  0  0  0  0
  9 12  1  0  0  0  0
 11  6  1  0  0  0  0
 13  9  1  0  0  0  0
 14  9  1  0  0  0  0
M  END
$$$$
