butane_opt
 OpenBabel08242015423D

 14 13  0  0  0  0  0  0  0  0999 V2000
   -3.9579    0.2686   -0.0012 C   0  0  0  0  0  0  0  0  0  0  0  0
   -2.7019   -0.6226    0.0654 C   0  0  0  0  0  0  0  0  0  0  0  0
   -4.8583   -0.3224   -0.0295 H   0  0  0  0  0  0  0  0  0  0  0  0
   -3.9389    0.9492   -0.9551 H   0  0  0  0  0  0  0  0  0  0  0  0
   -3.9762    0.9322    0.8726 H   0  0  0  0  0  0  0  0  0  0  0  0
   -1.4008    0.1784    0.0334 C   0  0  0  0  0  0  0  0  0  0  0  0
   -2.7072   -1.2748   -0.7652 H   0  0  0  0  0  0  0  0  0  0  0  0
   -2.7264   -1.2995    0.9802 H   0  0  0  0  0  0  0  0  0  0  0  0
   -0.1562   -0.6886    0.0103 C   0  0  0  0  0  0  0  0  0  0  0  0
   -1.3193    0.8410    0.8819 H   0  0  0  0  0  0  0  0  0  0  0  0
   -1.3862    0.8399   -0.8584 H   0  0  0  0  0  0  0  0  0  0  0  0
   -0.1093   -1.2259    0.8473 H   0  0  0  0  0  0  0  0  0  0  0  0
    0.7421   -0.0950    0.0488 H   0  0  0  0  0  0  0  0  0  0  0  0
   -0.1451   -1.4426   -0.8910 H   0  0  0  0  0  0  0  0  0  0  0  0
  1  2  1  0  0  0  0
  1  5  1  0  0  0  0
  2  8  1  0  0  0  0
  3  1  1  0  0  0  0
  4  1  1  0  0  0  0
  6  2  1  0  0  0  0
  6 10  1  0  0  0  0
  7  2  1  0  0  0  0
  9  6  1  0  0  0  0
  9 13  1  0  0  0  0
  9 12  1  0  0  0  0
 11  6  1  0  0  0  0
 14  9  1  0  0  0  0
M  END
$$$$
