14
butane_opt
C  -3.968455   0.268244  -0.022650
C  -2.683690  -0.619612   0.096632
H  -4.861443  -0.319724  -0.115645
H  -3.875840   0.856428  -0.886432
H  -4.027535   1.069647   0.906911
C  -1.383462   0.166938   0.029250
H  -2.635065  -1.333297  -0.754731
H  -2.723518  -1.287715   1.054809
C  -0.172188  -0.682433  -0.008659
H  -1.367302   0.892503   0.934953
H  -1.445551   0.748088  -0.849073
H  -0.193343  -1.288097   0.917333
H   0.745123  -0.046516  -0.039666
H  -0.150182  -1.355748  -0.859921
