butane_opt
 OpenBabel08242015423D

 14 13  0  0  0  0  0  0  0  0999 V2000
   -3.9293    0.2628    0.0450 C   0  0  0  0  0  0  0  0  0  0  0  0
   -2.6929   -0.6219   -0.0030 C   0  0  0  0  0  0  0  0  0  0  0  0
   -4.7797   -0.2523    0.0142 H   0  0  0  0  0  0  0  0  0  0  0  0
   -4.0430    0.8383   -0.8602 H   0  0  0  0  0  0  0  0  0  0  0  0
   -3.8726    1.0264    0.9690 H   0  0  0  0  0  0  0  0  0  0  0  0
   -1.4218    0.1759    0.0077 C   0  0  0  0  0  0  0  0  0  0  0  0
   -2.6792   -1.4380   -0.9367 H   0  0  0  0  0  0  0  0  0  0  0  0
   -2.6936   -1.2012    0.8484 H   0  0  0  0  0  0  0  0  0  0  0  0
   -0.1671   -0.6871    0.0669 C   0  0  0  0  0  0  0  0  0  0  0  0
   -1.3897    0.7877    0.8237 H   0  0  0  0  0  0  0  0  0  0  0  0
   -1.4206    0.8580   -0.9734 H   0  0  0  0  0  0  0  0  0  0  0  0
   -0.0728   -1.4092    1.0605 H   0  0  0  0  0  0  0  0  0  0  0  0
    0.7326   -0.0592   -0.1901 H   0  0  0  0  0  0  0  0  0  0  0  0
   -0.2794   -1.1581   -0.6896 H   0  0  0  0  0  0  0  0  0  0  0  0
  1  5  1  0  0  0  0
  2  6  1  0  0  0  0
  2  1  1  0  0  0  0
  2  8  1  0  0  0  0
  3  1  1  0  0  0  0
  4  1  1  0  0  0  0
  6  9  1  0  0  0  0
  6 10  1  0  0  0  0
  7  2  1  0  0  0  0
  9 12  1  0  0  0  0
 11  6  1  0  0  0  0
 13  9  1  0  0  0  0
 14  9  1  0  0  0  0
M  END
$$$$
