butane_opt
 OpenBabel08242015423D

 14 13  0  0  0  0  0  0  0  0999 V2000
   -3.9204    0.2798   -0.0478 C   0  0  0  0  0  0  0  0  0  0  0  0
   -2.6971   -0.6159    0.0973 C   0  0  0  0  0  0  0  0  0  0  0  0
   -4.8398   -0.3354   -0.0547 H   0  0  0  0  0  0  0  0  0  0  0  0
   -3.9783    0.9380   -0.9456 H   0  0  0  0  0  0  0  0  0  0  0  0
   -3.9929    0.8869    0.7246 H   0  0  0  0  0  0  0  0  0  0  0  0
   -1.4108    0.1498    0.0963 C   0  0  0  0  0  0  0  0  0  0  0  0
   -2.7301   -1.2953   -0.7559 H   0  0  0  0  0  0  0  0  0  0  0  0
   -2.7600   -1.2426    0.9823 H   0  0  0  0  0  0  0  0  0  0  0  0
   -0.1691   -0.6885   -0.0345 C   0  0  0  0  0  0  0  0  0  0  0  0
   -1.3036    0.9771    1.0770 H   0  0  0  0  0  0  0  0  0  0  0  0
   -1.4509    0.7309   -0.7529 H   0  0  0  0  0  0  0  0  0  0  0  0
   -0.0849   -1.4130    0.9222 H   0  0  0  0  0  0  0  0  0  0  0  0
    0.7673   -0.0425   -0.2604 H   0  0  0  0  0  0  0  0  0  0  0  0
   -0.2868   -1.1768   -0.8338 H   0  0  0  0  0  0  0  0  0  0  0  0
  1  2  1  0  0  0  0
  1  5  1  0  0  0  0
  2  8  1  0  0  0  0
  3  1  1  0  0  0  0
  4  1  1  0  0  0  0
  6  2  1  0  0  0  0
  6 10  1  0  0  0  0
  7  2  1  0  0  0  0
  9  6  1  0  0  0  0
  9 12  1  0  0  0  0
 11  6  1  0  0  0  0
 13  9  1  0  0  0  0
 14  9  1  0  0  0  0
M  END
$$$$
