butane_opt
 OpenBabel08242015423D

 14 13  0  0  0  0  0  0  0  0999 V2000
   -3.9685    0.2682   -0.0226 C   0  0  0  0  0  0  0  0  0  0  0  0
   -2.6837   -0.6196    0.0966 C   0  0  0  0  0  0  0  0  0  0  0  0
   -4.8614   -0.3197   -0.1156 H   0  0  0  0  0  0  0  0  0  0  0  0
   -3.8758    0.8564   -0.8864 H   0  0  0  0  0  0  0  0  0  0  0  0
   -4.0275    1.0696    0.9069 H   0  0  0  0  0  0  0  0  0  0  0  0
   -1.3835    0.1669    0.0293 C   0  0  0  0  0  0  0  0  0  0  0  0
   -2.6351   -1.3333   -0.7547 H   0  0  0  0  0  0  0  0  0  0  0  0
   -2.7235   -1.2877    1.0548 H   0  0  0  0  0  0  0  0  0  0  0  0
   -0.1722   -0.6824   -0.0087 C   0  0  0  0  0  0  0  0  0  0  0  0
   -1.3673    0.8925    0.9350 H   0  0  0  0  0  0  0  0  0  0  0  0
   -1.4456    0.7481   -0.8491 H   0  0  0  0  0  0  0  0  0  0  0  0
   -0.1933   -1.2881    0.9173 H   0  0  0  0  0  0  0  0  0  0  0  0
    0.7451   -0.0465   -0.0397 H   0  0  0  0  0  0  0  0  0  0  0  0
   -0.1502   -1.3557   -0.8599 H   0  0  0  0  0  0  0  0  0  0  0  0
  1  2  1  0  0  0  0
  1  5  1  0  0  0  0
  2  8  1  0  0  0  0
  3  1  1  0  0  0  0
  4  1  1  0  0  0  0
  6  2  1  0  0  0  0
  6 10  1  0  0  0  0
  7  2  1  0  0  0  0
  9  6  1  0  0  0  0
  9 12  1  0  0  0  0
 11  6  1  0  0  0  0
 13  9  1  0  0  0  0
 14  9  1  0  0  0  0
M  END
$$$$
