butane_opt
 OpenBabel08242015423D

 14 13  0  0  0  0  0  0  0  0999 V2000
   -3.9372    0.2834   -0.0143 C   0  0  0  0  0  0  0  0  0  0  0  0
   -2.7004   -0.6309    0.0554 C   0  0  0  0  0  0  0  0  0  0  0  0
   -4.8836   -0.3263    0.2694 H   0  0  0  0  0  0  0  0  0  0  0  0
   -3.9797    1.1938   -1.0428 H   0  0  0  0  0  0  0  0  0  0  0  0
   -3.8871    0.7192    0.6779 H   0  0  0  0  0  0  0  0  0  0  0  0
   -1.3979    0.1600    0.0635 C   0  0  0  0  0  0  0  0  0  0  0  0
   -2.5761   -1.3228   -0.8138 H   0  0  0  0  0  0  0  0  0  0  0  0
   -2.6806   -1.3133    0.9610 H   0  0  0  0  0  0  0  0  0  0  0  0
   -0.1783   -0.6790   -0.0097 C   0  0  0  0  0  0  0  0  0  0  0  0
   -1.3023    0.9329    1.0263 H   0  0  0  0  0  0  0  0  0  0  0  0
   -1.4210    0.6997   -0.7766 H   0  0  0  0  0  0  0  0  0  0  0  0
   -0.2839   -1.1813    0.8314 H   0  0  0  0  0  0  0  0  0  0  0  0
    0.7216   -0.0979    0.0252 H   0  0  0  0  0  0  0  0  0  0  0  0
   -0.1622   -1.3735   -0.8901 H   0  0  0  0  0  0  0  0  0  0  0  0
  1  2  1  0  0  0  0
  1  3  1  0  0  0  0
  1  5  1  0  0  0  0
  2  6  1  0  0  0  0
  2  8  1  0  0  0  0
  4  1  1  0  0  0  0
  6 10  1  0  0  0  0
  7  2  1  0  0  0  0
  9 13  1  0  0  0  0
  9  6  1  0  0  0  0
  9 12  1  0  0  0  0
 11  6  1  0  0  0  0
 14  9  1  0  0  0  0
M  END
$$$$
