butane_opt
 OpenBabel08242015423D

 14 13  0  0  0  0  0  0  0  0999 V2000
   -3.9378    0.2808    0.0372 C   0  0  0  0  0  0  0  0  0  0  0  0
   -2.6747   -0.6292    0.0233 C   0  0  0  0  0  0  0  0  0  0  0  0
   -4.8421   -0.2869   -0.1105 H   0  0  0  0  0  0  0  0  0  0  0  0
   -3.9966    0.7007   -0.7333 H   0  0  0  0  0  0  0  0  0  0  0  0
   -4.0475    1.1688    1.0578 H   0  0  0  0  0  0  0  0  0  0  0  0
   -1.3940    0.1569   -0.0394 C   0  0  0  0  0  0  0  0  0  0  0  0
   -2.8077   -1.2004   -0.8155 H   0  0  0  0  0  0  0  0  0  0  0  0
   -2.6845   -1.3137    0.9587 H   0  0  0  0  0  0  0  0  0  0  0  0
   -0.1799   -0.6731    0.0624 C   0  0  0  0  0  0  0  0  0  0  0  0
   -1.4183    0.7480    0.7619 H   0  0  0  0  0  0  0  0  0  0  0  0
   -1.3564    0.7816   -0.9360 H   0  0  0  0  0  0  0  0  0  0  0  0
   -0.2065   -1.3043    0.9719 H   0  0  0  0  0  0  0  0  0  0  0  0
    0.7888   -0.0267    0.0759 H   0  0  0  0  0  0  0  0  0  0  0  0
   -0.2147   -1.3573   -0.7743 H   0  0  0  0  0  0  0  0  0  0  0  0
  1  5  1  0  0  0  0
  2  1  1  0  0  0  0
  2  8  1  0  0  0  0
  3  1  1  0  0  0  0
  4  1  1  0  0  0  0
  6  2  1  0  0  0  0
  6  9  1  0  0  0  0
  6 10  1  0  0  0  0
  7  2  1  0  0  0  0
  9 13  1  0  0  0  0
  9 12  1  0  0  0  0
 11  6  1  0  0  0  0
 14  9  1  0  0  0  0
M  END
$$$$
