14
butane_opt
C  -3.920425   0.279818  -0.047783
C  -2.697097  -0.615867   0.097319
H  -4.839751  -0.335426  -0.054745
H  -3.978348   0.937958  -0.945616
H  -3.992890   0.886892   0.724556
C  -1.410772   0.149775   0.096295
H  -2.730097  -1.295334  -0.755860
H  -2.760044  -1.242623   0.982285
C  -0.169100  -0.688538  -0.034457
H  -1.303601   0.977076   1.076976
H  -1.450940   0.730855  -0.752901
H  -0.084933  -1.412987   0.922244
H   0.767289  -0.042540  -0.260351
H  -0.286806  -1.176761  -0.833835
