14
butane_opt
C  -3.965388   0.287380   0.028008
C  -2.711147  -0.646892   0.024271
H  -4.803614  -0.256492  -0.027126
H  -4.013751   0.840193  -0.864187
H  -4.072322   0.982313   0.876877
C  -1.374377   0.173010   0.016337
H  -2.677346  -1.328647  -0.802959
H  -2.655202  -1.272097   0.884164
C  -0.157667  -0.676346   0.026873
H  -1.339552   0.881140   0.900970
H  -1.317246   0.776235  -0.845291
H  -0.082983  -1.437087   1.011733
H   0.696987  -0.101862  -0.088512
H  -0.253916  -1.195787  -0.730169
