14
butane_opt
C  -3.922949   0.255409  -0.008692
C  -2.698967  -0.615346   0.053844
H  -4.818400  -0.329883   0.184298
H  -3.906457   1.105357  -1.064126
H  -3.906668   0.740054   0.741897
C  -1.418079   0.206857   0.064244
H  -2.780848  -1.282515  -0.844065
H  -2.785398  -1.263472   0.946781
C  -0.165198  -0.704353   0.000012
H  -1.343075   0.946965   0.960583
H  -1.481139   0.774708  -0.774947
H  -0.072094  -1.335614   0.837475
H   0.759015  -0.118202   0.004881
H  -0.229092  -1.405858  -0.874317
