14
butane_opt
C  -3.937202   0.283390  -0.014273
C  -2.700357  -0.630912   0.055389
H  -4.883577  -0.326325   0.269400
H  -3.979726   1.193792  -1.042828
H  -3.887122   0.719190   0.677860
C  -1.397907   0.159964   0.063525
H  -2.576137  -1.322830  -0.813773
H  -2.680650  -1.313277   0.961023
C  -0.178290  -0.678966  -0.009658
H  -1.302340   0.932878   1.026273
H  -1.421004   0.699680  -0.776599
H  -0.283911  -1.181278   0.831404
H   0.721637  -0.097904   0.025192
H  -0.162158  -1.373524  -0.890142
