butane_opt
 OpenBabel08242015423D

 14 13  0  0  0  0  0  0  0  0999 V2000
   -3.9381    0.2839    0.0509 C   0  0  0  0  0  0  0  0  0  0  0  0
   -2.7042   -0.6213   -0.0152 C   0  0  0  0  0  0  0  0  0  0  0  0
   -4.8009   -0.2822    0.0607 H   0  0  0  0  0  0  0  0  0  0  0  0
   -4.0355    0.8103   -0.7802 H   0  0  0  0  0  0  0  0  0  0  0  0
   -3.9352    1.0246    0.9551 H   0  0  0  0  0  0  0  0  0  0  0  0
   -1.4014    0.1517    0.0105 C   0  0  0  0  0  0  0  0  0  0  0  0
   -2.6826   -1.4085   -0.9506 H   0  0  0  0  0  0  0  0  0  0  0  0
   -2.6785   -1.1922    0.8183 H   0  0  0  0  0  0  0  0  0  0  0  0
   -0.1774   -0.6780    0.0606 C   0  0  0  0  0  0  0  0  0  0  0  0
   -1.4313    0.7178    0.7328 H   0  0  0  0  0  0  0  0  0  0  0  0
   -1.3458    0.8345   -0.9281 H   0  0  0  0  0  0  0  0  0  0  0  0
   -0.1118   -1.4253    1.0775 H   0  0  0  0  0  0  0  0  0  0  0  0
    0.8284   -0.0348   -0.1679 H   0  0  0  0  0  0  0  0  0  0  0  0
   -0.1925   -1.1240   -0.6316 H   0  0  0  0  0  0  0  0  0  0  0  0
  1  3  1  0  0  0  0
  1  5  1  0  0  0  0
  2  6  1  0  0  0  0
  2  1  1  0  0  0  0
  2  8  1  0  0  0  0
  4  1  1  0  0  0  0
  6  9  1  0  0  0  0
  6 10  1  0  0  0  0
  7  2  1  0  0  0  0
  9 12  1  0  0  0  0
 11  6  1  0  0  0  0
 13  9  1  0  0  0  0
 14  9  1  0  0  0  0
M  END
$$$$
