butane_opt
 OpenBabel08242015423D

 14 13  0  0  0  0  0  0  0  0999 V2000
   -3.9529    0.2779    0.0314 C   0  0  0  0  0  0  0  0  0  0  0  0
   -2.7062   -0.6550    0.0035 C   0  0  0  0  0  0  0  0  0  0  0  0
   -4.8150   -0.2187    0.0711 H   0  0  0  0  0  0  0  0  0  0  0  0
   -4.0004    0.9227   -0.8903 H   0  0  0  0  0  0  0  0  0  0  0  0
   -3.9479    0.9468    0.8960 H   0  0  0  0  0  0  0  0  0  0  0  0
   -1.3872    0.1868    0.0165 C   0  0  0  0  0  0  0  0  0  0  0  0
   -2.7426   -1.3077   -0.8443 H   0  0  0  0  0  0  0  0  0  0  0  0
   -2.7356   -1.2409    0.8951 H   0  0  0  0  0  0  0  0  0  0  0  0
   -0.1534   -0.6882    0.0294 C   0  0  0  0  0  0  0  0  0  0  0  0
   -1.3298    0.8954    0.9003 H   0  0  0  0  0  0  0  0  0  0  0  0
   -1.4988    0.7452   -0.8336 H   0  0  0  0  0  0  0  0  0  0  0  0
   -0.1198   -1.4062    1.0330 H   0  0  0  0  0  0  0  0  0  0  0  0
    0.7462   -0.1051   -0.0612 H   0  0  0  0  0  0  0  0  0  0  0  0
   -0.1935   -1.1486   -0.6707 H   0  0  0  0  0  0  0  0  0  0  0  0
  1  3  1  0  0  0  0
  1  5  1  0  0  0  0
  2  6  1  0  0  0  0
  2  1  1  0  0  0  0
  2  8  1  0  0  0  0
  4  1  1  0  0  0  0
  6  9  1  0  0  0  0
  6 10  1  0  0  0  0
  7  2  1  0  0  0  0
  9 12  1  0  0  0  0
 11  6  1  0  0  0  0
 13  9  1  0  0  0  0
 14  9  1  0  0  0  0
M  END
$$$$
