butane_opt
 OpenBabel08242015423D

 14 13  0  0  0  0  0  0  0  0999 V2000
   -3.9424    0.2588   -0.0120 C   0  0  0  0  0  0  0  0  0  0  0  0
   -2.7323   -0.6049    0.0868 C   0  0  0  0  0  0  0  0  0  0  0  0
   -4.8969   -0.3855    0.0658 H   0  0  0  0  0  0  0  0  0  0  0  0
   -4.0646    0.9105   -0.8971 H   0  0  0  0  0  0  0  0  0  0  0  0
   -3.9196    0.8667    0.8407 H   0  0  0  0  0  0  0  0  0  0  0  0
   -1.3968    0.2054    0.0135 C   0  0  0  0  0  0  0  0  0  0  0  0
   -2.7074   -1.2550   -0.7647 H   0  0  0  0  0  0  0  0  0  0  0  0
   -2.7089   -1.2479    0.9631 H   0  0  0  0  0  0  0  0  0  0  0  0
   -0.1420   -0.7054    0.0152 C   0  0  0  0  0  0  0  0  0  0  0  0
   -1.3529    0.7753    0.8292 H   0  0  0  0  0  0  0  0  0  0  0  0
   -1.3669    0.8724   -0.9360 H   0  0  0  0  0  0  0  0  0  0  0  0
   -0.1418   -1.0760    0.7619 H   0  0  0  0  0  0  0  0  0  0  0  0
    0.6929   -0.1827    0.2610 H   0  0  0  0  0  0  0  0  0  0  0  0
    0.0163   -1.6117   -0.9592 H   0  0  0  0  0  0  0  0  0  0  0  0
  1  3  1  0  0  0  0
  1  2  1  0  0  0  0
  1  5  1  0  0  0  0
  2  8  1  0  0  0  0
  4  1  1  0  0  0  0
  6  9  1  0  0  0  0
  6  2  1  0  0  0  0
  6 10  1  0  0  0  0
  7  2  1  0  0  0  0
  9 13  1  0  0  0  0
  9 12  1  0  0  0  0
 11  6  1  0  0  0  0
 14  9  1  0  0  0  0
M  END
$$$$
