14
butane_opt
C  -3.929190   0.274863  -0.020072
C  -2.700665  -0.613942   0.049789
H  -4.894914  -0.371596   0.301900
H  -3.974925   1.097348  -1.075091
H  -3.905034   0.756296   0.712798
C  -1.409531   0.175566   0.068490
H  -2.612621  -1.369099  -0.813381
H  -2.705899  -1.264662   1.000047
C  -0.174679  -0.679848   0.005270
H  -1.367400   0.883630   0.929381
H  -1.366700   0.765334  -0.766980
H  -0.090321  -1.238840   0.864214
H   0.756991  -0.114390  -0.041559
H  -0.286841  -1.489279  -0.936354
