14
butane_opt
C  -3.938080   0.283934   0.050906
C  -2.704221  -0.621263  -0.015232
H  -4.800887  -0.282202   0.060729
H  -4.035533   0.810337  -0.780241
H  -3.935206   1.024631   0.955137
C  -1.401449   0.151713   0.010543
H  -2.682577  -1.408522  -0.950555
H  -2.678545  -1.192235   0.818254
C  -0.177402  -0.678042   0.060608
H  -1.431264   0.717778   0.732751
H  -1.345774   0.834472  -0.928093
H  -0.111799  -1.425251   1.077490
H   0.828415  -0.034782  -0.167896
H  -0.192548  -1.124029  -0.631621
