14
butane_opt
C  -3.944811   0.289382   0.057687
C  -2.696610  -0.643196  -0.042906
H  -4.864200  -0.244449   0.238766
H  -4.057847   0.891031  -0.812515
H  -3.890441   0.973402   0.957010
C  -1.394007   0.170763  -0.016968
H  -2.676428  -1.371524  -0.947059
H  -2.653002  -1.326531   0.850522
C  -0.183513  -0.680173   0.078569
H  -1.351571   0.806499   0.841524
H  -1.341215   0.798073  -0.929091
H  -0.154546  -1.369938   1.064491
H   0.766143  -0.036881  -0.054880
H  -0.185611  -1.210724  -0.663181
