14
butane_opt
C  -3.904505   0.243236   0.056783
C  -2.690250  -0.590320   0.016207
H  -4.889460  -0.384195  -0.116128
H  -3.894744   0.691958  -0.727036
H  -3.974305   1.058891   1.058598
C  -1.428376   0.215963  -0.048405
H  -2.805399  -1.290294  -0.866452
H  -2.715144  -1.259398   0.948402
C  -0.170397  -0.714948   0.063637
H  -1.507241   0.862822   0.734221
H  -1.374504   0.863950  -0.970002
H  -0.244344  -1.378928   1.030372
H   0.715840  -0.120741   0.065316
H   0.001571  -1.378731  -0.770925
