14
butane_opt
C  -3.927699   0.245783   0.076447
C  -2.688879  -0.598145  -0.041008
H  -4.935454  -0.394934   0.292313
H  -4.085379   0.945827  -0.872018
H  -3.812351   0.784403   0.868222
C  -1.412448   0.215070  -0.024969
H  -2.750776  -1.324841  -0.984762
H  -2.709343  -1.119611   0.788031
C  -0.165882  -0.720065   0.085666
H  -1.425354   0.798589   0.776083
H  -1.411851   0.923584  -0.959203
H  -0.141209  -1.311765   0.963446
H   0.695242  -0.176492   0.112763
H  -0.082853  -1.324524  -0.697189
