butane_opt
 OpenBabel08242015423D

 14 13  0  0  0  0  0  0  0  0999 V2000
   -3.9604    0.2754    0.0292 C   0  0  0  0  0  0  0  0  0  0  0  0
   -2.6905   -0.6361    0.0090 C   0  0  0  0  0  0  0  0  0  0  0  0
   -4.8588   -0.2936    0.3165 H   0  0  0  0  0  0  0  0  0  0  0  0
   -4.1030    1.0486   -0.9492 H   0  0  0  0  0  0  0  0  0  0  0  0
   -3.9193    0.8389    0.8422 H   0  0  0  0  0  0  0  0  0  0  0  0
   -1.3875    0.1833    0.0042 C   0  0  0  0  0  0  0  0  0  0  0  0
   -2.7834   -1.4239   -0.9269 H   0  0  0  0  0  0  0  0  0  0  0  0
   -2.7068   -1.1418    0.8270 H   0  0  0  0  0  0  0  0  0  0  0  0
   -0.1582   -0.6787    0.0509 C   0  0  0  0  0  0  0  0  0  0  0  0
   -1.3197    0.7855    0.8130 H   0  0  0  0  0  0  0  0  0  0  0  0
   -1.3433    0.7942   -0.8410 H   0  0  0  0  0  0  0  0  0  0  0  0
   -0.1690   -1.3370    0.9781 H   0  0  0  0  0  0  0  0  0  0  0  0
    0.6712   -0.1071    0.0689 H   0  0  0  0  0  0  0  0  0  0  0  0
   -0.1271   -1.3613   -0.8154 H   0  0  0  0  0  0  0  0  0  0  0  0
  1  3  1  0  0  0  0
  1  5  1  0  0  0  0
  2  1  1  0  0  0  0
  2  8  1  0  0  0  0
  4  1  1  0  0  0  0
  6  2  1  0  0  0  0
  6  9  1  0  0  0  0
  6 10  1  0  0  0  0
  7  2  1  0  0  0  0
  9 13  1  0  0  0  0
  9 12  1  0  0  0  0
 11  6  1  0  0  0  0
 14  9  1  0  0  0  0
M  END
$$$$
