14
butane_opt
C  -3.932798   0.284597  -0.008296
C  -2.678739  -0.634428   0.062009
H  -4.813327  -0.257546  -0.044260
H  -3.911126   0.934368  -0.936038
H  -4.065719   0.887103   0.747341
C  -1.393414   0.159228   0.071517
H  -2.648004  -1.297694  -0.812547
H  -2.772987  -1.302756   0.961265
C  -0.189325  -0.668975  -0.010131
H  -1.324575   0.944623   1.021900
H  -1.399026   0.685515  -0.766693
H  -0.137842  -1.442870   0.983192
H   0.688789  -0.071366  -0.289471
H  -0.313392  -1.229523  -0.798189
