14
butane_opt
C  -3.943646   0.250954   0.013255
C  -2.711444  -0.602486   0.039360
H  -4.837966  -0.312857   0.108301
H  -4.011297   0.928430  -0.931376
H  -3.944176   0.848447   0.803157
C  -1.397012   0.202076   0.023898
H  -2.779668  -1.283839  -0.830950
H  -2.721564  -1.263378   0.951979
C  -0.148098  -0.704488   0.021460
H  -1.400045   0.916217   0.901251
H  -1.413450   0.800264  -0.877114
H  -0.116378  -1.308589   0.936964
H   0.730707  -0.152639   0.061160
H  -0.123022  -1.398776  -0.868300
