14
butane_opt
C  -3.921156   0.248278  -0.051649
C  -2.696311  -0.602204   0.099439
H  -4.885774  -0.363428  -0.045323
H  -3.781631   0.832413  -0.952189
H  -3.961838   0.895021   0.808565
C  -1.420521   0.212377   0.095646
H  -2.679507  -1.263849  -0.747893
H  -2.727494  -1.234448   1.018062
C  -0.175844  -0.702001  -0.023721
H  -1.406622   0.908330   0.960613
H  -1.470924   0.826324  -0.818635
H   0.084751  -1.399546   0.927902
H   0.672273  -0.150025  -0.218171
H  -0.305124  -1.409858  -0.921601
