14
butane_opt
C  -3.937040   0.259712  -0.004628
C  -2.704433  -0.614847   0.070297
H  -4.826855  -0.332423   0.078674
H  -3.936286   0.889239  -0.920227
H  -3.941672   0.888540   0.809191
C  -1.412594   0.196571   0.011537
H  -2.708651  -1.249664  -0.769830
H  -2.726188  -1.295138   1.009734
C  -0.160200  -0.696098   0.014141
H  -1.362249   0.919704   0.915610
H  -1.476098   0.800904  -0.846880
H  -0.176837  -1.223553   0.836784
H   0.748832  -0.111163   0.143606
H  -0.053450  -1.502888  -0.923486
