14
butane_opt
C  -3.959270   0.283393  -0.002685
C  -2.709730  -0.647724   0.061500
H  -4.801817  -0.284397   0.090960
H  -3.973821   1.008263  -0.991952
H  -4.096183   0.895207   0.801182
C  -1.376165   0.172388   0.049186
H  -2.745265  -1.364851  -0.767640
H  -2.728934  -1.235947   0.934806
C  -0.158392  -0.683409  -0.002694
H  -1.419351   0.848627   0.884850
H  -1.380342   0.820872  -0.837580
H  -0.087291  -1.197848   0.871889
H   0.761889  -0.104501   0.024587
H  -0.119971  -1.338095  -0.848275
