butane_opt
 OpenBabel08242015423D

 14 13  0  0  0  0  0  0  0  0999 V2000
   -3.9226    0.2449    0.0651 C   0  0  0  0  0  0  0  0  0  0  0  0
   -2.7130   -0.5962   -0.0379 C   0  0  0  0  0  0  0  0  0  0  0  0
   -4.8671   -0.3789    0.2606 H   0  0  0  0  0  0  0  0  0  0  0  0
   -4.1864    0.8881   -0.8384 H   0  0  0  0  0  0  0  0  0  0  0  0
   -3.7210    0.9051    0.9779 H   0  0  0  0  0  0  0  0  0  0  0  0
   -1.4233    0.2153   -0.0423 C   0  0  0  0  0  0  0  0  0  0  0  0
   -2.7459   -1.3037   -0.9517 H   0  0  0  0  0  0  0  0  0  0  0  0
   -2.6696   -1.2080    0.8310 H   0  0  0  0  0  0  0  0  0  0  0  0
   -0.1628   -0.7033    0.0925 C   0  0  0  0  0  0  0  0  0  0  0  0
   -1.4578    0.8149    0.7654 H   0  0  0  0  0  0  0  0  0  0  0  0
   -1.3476    0.7923   -0.9265 H   0  0  0  0  0  0  0  0  0  0  0  0
   -0.1111   -1.4111    1.0196 H   0  0  0  0  0  0  0  0  0  0  0  0
    0.7312   -0.1533    0.0969 H   0  0  0  0  0  0  0  0  0  0  0  0
    0.0166   -1.3369   -0.7265 H   0  0  0  0  0  0  0  0  0  0  0  0
  1  3  1  0  0  0  0
  1  5  1  0  0  0  0
  2  1  1  0  0  0  0
  2  8  1  0  0  0  0
  4  1  1  0  0  0  0
  6  2  1  0  0  0  0
  6  9  1  0  0  0  0
  6 10  1  0  0  0  0
  7  2  1  0  0  0  0
  9 13  1  0  0  0  0
  9 12  1  0  0  0  0
 11  6  1  0  0  0  0
 14  9  1  0  0  0  0
M  END
$$$$
