14
butane_opt
C  -3.919302   0.290332  -0.035904
C  -2.689472  -0.634476   0.116890
H  -4.811532  -0.289101  -0.106714
H  -3.907848   0.829551  -0.877129
H  -4.123070   0.966166   0.802678
C  -1.396875   0.154729   0.050121
H  -2.707613  -1.257174  -0.726429
H  -2.690650  -1.326337   1.024328
C  -0.192052  -0.666218  -0.003417
H  -1.406451   0.781872   0.883581
H  -1.439876   0.789861  -0.879176
H  -0.149778  -1.133829   0.769972
H   0.780171  -0.078386   0.013417
H  -0.209202  -1.477853  -1.009413
