14
butane_opt
C  -3.962743   0.287395   0.060583
C  -2.676156  -0.621969  -0.022506
H  -4.815740  -0.306290   0.043332
H  -3.983469   0.771701  -0.750261
H  -3.881631   1.021906   0.967827
C  -1.409738   0.135809  -0.017807
H  -2.665645  -1.358179  -0.968387
H  -2.695222  -1.216208   0.836716
C  -0.176675  -0.662244   0.086011
H  -1.390580   0.831617   0.835348
H  -1.310270   0.807166  -0.960129
H  -0.130738  -1.476198   1.101252
H   0.740054  -0.045201  -0.245215
H  -0.208142  -1.156324  -0.668549
