butane_opt
 OpenBabel08242015423D

 14 13  0  0  0  0  0  0  0  0999 V2000
   -3.9007    0.2489    0.0471 C   0  0  0  0  0  0  0  0  0  0  0  0
   -2.7082   -0.5889   -0.0096 C   0  0  0  0  0  0  0  0  0  0  0  0
   -4.8234   -0.3908    0.0613 H   0  0  0  0  0  0  0  0  0  0  0  0
   -3.9676    0.8160   -0.8032 H   0  0  0  0  0  0  0  0  0  0  0  0
   -3.9417    0.8677    0.8945 H   0  0  0  0  0  0  0  0  0  0  0  0
   -1.4302    0.2026    0.0116 C   0  0  0  0  0  0  0  0  0  0  0  0
   -2.7608   -1.3403   -0.9105 H   0  0  0  0  0  0  0  0  0  0  0  0
   -2.7167   -1.1533    0.8445 H   0  0  0  0  0  0  0  0  0  0  0  0
   -0.1562   -0.7042    0.0526 C   0  0  0  0  0  0  0  0  0  0  0  0
   -1.5303    0.8595    0.7970 H   0  0  0  0  0  0  0  0  0  0  0  0
   -1.4314    0.8442   -0.8906 H   0  0  0  0  0  0  0  0  0  0  0  0
   -0.0171   -1.5113    1.0459 H   0  0  0  0  0  0  0  0  0  0  0  0
    0.7161   -0.1444   -0.1308 H   0  0  0  0  0  0  0  0  0  0  0  0
   -0.2018   -1.2172   -0.6688 H   0  0  0  0  0  0  0  0  0  0  0  0
  1  3  1  0  0  0  0
  1  5  1  0  0  0  0
  2  6  1  0  0  0  0
  2  1  1  0  0  0  0
  2  8  1  0  0  0  0
  4  1  1  0  0  0  0
  6  9  1  0  0  0  0
  6 10  1  0  0  0  0
  7  2  1  0  0  0  0
  9 12  1  0  0  0  0
 11  6  1  0  0  0  0
 13  9  1  0  0  0  0
 14  9  1  0  0  0  0
M  END
$$$$
