butane_opt
 OpenBabel08242015423D

 14 13  0  0  0  0  0  0  0  0999 V2000
   -3.9671    0.2423   -0.0339 C   0  0  0  0  0  0  0  0  0  0  0  0
   -2.7086   -0.5890    0.0818 C   0  0  0  0  0  0  0  0  0  0  0  0
   -4.9070   -0.3851    0.1466 H   0  0  0  0  0  0  0  0  0  0  0  0
   -3.9761    0.9753   -0.9830 H   0  0  0  0  0  0  0  0  0  0  0  0
   -3.9885    0.8346    0.7967 H   0  0  0  0  0  0  0  0  0  0  0  0
   -1.4019    0.2106    0.0400 C   0  0  0  0  0  0  0  0  0  0  0  0
   -2.7255   -1.2127   -0.7378 H   0  0  0  0  0  0  0  0  0  0  0  0
   -2.6917   -1.3179    1.0704 H   0  0  0  0  0  0  0  0  0  0  0  0
   -0.1241   -0.7064   -0.0038 C   0  0  0  0  0  0  0  0  0  0  0  0
   -1.3833    0.8940    0.9476 H   0  0  0  0  0  0  0  0  0  0  0  0
   -1.3907    0.7485   -0.7646 H   0  0  0  0  0  0  0  0  0  0  0  0
   -0.1101   -1.2122    0.7909 H   0  0  0  0  0  0  0  0  0  0  0  0
    0.7262   -0.1321    0.1211 H   0  0  0  0  0  0  0  0  0  0  0  0
   -0.1342   -1.5636   -0.9861 H   0  0  0  0  0  0  0  0  0  0  0  0
  1  2  1  0  0  0  0
  1  3  1  0  0  0  0
  1  5  1  0  0  0  0
  2  8  1  0  0  0  0
  4  1  1  0  0  0  0
  6  2  1  0  0  0  0
  6 10  1  0  0  0  0
  7  2  1  0  0  0  0
  9  6  1  0  0  0  0
  9 13  1  0  0  0  0
  9 12  1  0  0  0  0
 11  6  1  0  0  0  0
 14  9  1  0  0  0  0
M  END
$$$$
