butane_opt
 OpenBabel08242015423D

 14 13  0  0  0  0  0  0  0  0999 V2000
   -3.9352    0.2407    0.0439 C   0  0  0  0  0  0  0  0  0  0  0  0
   -2.7136   -0.5800    0.0181 C   0  0  0  0  0  0  0  0  0  0  0  0
   -4.8642   -0.3561   -0.1185 H   0  0  0  0  0  0  0  0  0  0  0  0
   -3.8159    0.6769   -0.7351 H   0  0  0  0  0  0  0  0  0  0  0  0
   -4.0351    1.1085    1.0662 H   0  0  0  0  0  0  0  0  0  0  0  0
   -1.3948    0.1906   -0.0342 C   0  0  0  0  0  0  0  0  0  0  0  0
   -2.8293   -1.2640   -0.8082 H   0  0  0  0  0  0  0  0  0  0  0  0
   -2.7028   -1.2145    0.8837 H   0  0  0  0  0  0  0  0  0  0  0  0
   -0.1548   -0.7171    0.0546 C   0  0  0  0  0  0  0  0  0  0  0  0
   -1.4815    0.9247    0.8585 H   0  0  0  0  0  0  0  0  0  0  0  0
   -1.4040    0.8877   -0.9594 H   0  0  0  0  0  0  0  0  0  0  0  0
   -0.1508   -1.4900    1.0744 H   0  0  0  0  0  0  0  0  0  0  0  0
    0.7529   -0.1124   -0.0472 H   0  0  0  0  0  0  0  0  0  0  0  0
   -0.1100   -1.2542   -0.7320 H   0  0  0  0  0  0  0  0  0  0  0  0
  1  5  1  0  0  0  0
  2  1  1  0  0  0  0
  2  8  1  0  0  0  0
  3  1  1  0  0  0  0
  4  1  1  0  0  0  0
  6  2  1  0  0  0  0
  6  9  1  0  0  0  0
  6 10  1  0  0  0  0
  7  2  1  0  0  0  0
  9 12  1  0  0  0  0
 11  6  1  0  0  0  0
 13  9  1  0  0  0  0
 14  9  1  0  0  0  0
M  END
$$$$
