butane_opt
 OpenBabel08242015423D

 14 13  0  0  0  0  0  0  0  0999 V2000
   -3.9238    0.2568    0.0639 C   0  0  0  0  0  0  0  0  0  0  0  0
   -2.7050   -0.6050   -0.0499 C   0  0  0  0  0  0  0  0  0  0  0  0
   -4.8005   -0.3234    0.3119 H   0  0  0  0  0  0  0  0  0  0  0  0
   -4.1355    0.9434   -0.8577 H   0  0  0  0  0  0  0  0  0  0  0  0
   -3.7848    0.8120    0.9304 H   0  0  0  0  0  0  0  0  0  0  0  0
   -1.4180    0.1952   -0.0198 C   0  0  0  0  0  0  0  0  0  0  0  0
   -2.6829   -1.3613   -0.9284 H   0  0  0  0  0  0  0  0  0  0  0  0
   -2.7333   -1.1960    0.8356 H   0  0  0  0  0  0  0  0  0  0  0  0
   -0.1687   -0.6995    0.0878 C   0  0  0  0  0  0  0  0  0  0  0  0
   -1.4606    0.8193    0.8174 H   0  0  0  0  0  0  0  0  0  0  0  0
   -1.3945    0.8231   -0.9335 H   0  0  0  0  0  0  0  0  0  0  0  0
   -0.1598   -1.3431    0.9981 H   0  0  0  0  0  0  0  0  0  0  0  0
    0.7308   -0.1051   -0.0214 H   0  0  0  0  0  0  0  0  0  0  0  0
   -0.0244   -1.2904   -0.7041 H   0  0  0  0  0  0  0  0  0  0  0  0
  1  3  1  0  0  0  0
  1  5  1  0  0  0  0
  2  6  1  0  0  0  0
  2  1  1  0  0  0  0
  2  8  1  0  0  0  0
  4  1  1  0  0  0  0
  6  9  1  0  0  0  0
  6 10  1  0  0  0  0
  7  2  1  0  0  0  0
  9 12  1  0  0  0  0
 11  6  1  0  0  0  0
 13  9  1  0  0  0  0
 14  9  1  0  0  0  0
M  END
$$$$
