14
butane_opt
C  -3.963187   0.284804   0.036274
C  -2.712233  -0.629106   0.019892
H  -4.882596  -0.331530  -0.080728
H  -3.972488   0.834934  -0.804127
H  -4.000890   0.997935   0.916533
C  -1.387052   0.174946   0.016349
H  -2.624807  -1.344242  -0.839818
H  -2.704166  -1.225832   0.847469
C  -0.163305  -0.685433   0.046233
H  -1.370785   0.751206   0.787892
H  -1.313926   0.833677  -0.896987
H  -0.039909  -1.403331   1.022962
H   0.775876  -0.014635  -0.175297
H  -0.193312  -1.302928  -0.751410
