butane_opt
 OpenBabel08242015423D

 14 13  0  0  0  0  0  0  0  0999 V2000
   -3.9520    0.2866    0.0499 C   0  0  0  0  0  0  0  0  0  0  0  0
   -2.6920   -0.6378   -0.0095 C   0  0  0  0  0  0  0  0  0  0  0  0
   -4.7993   -0.2764    0.2657 H   0  0  0  0  0  0  0  0  0  0  0  0
   -4.0901    1.0064   -0.9124 H   0  0  0  0  0  0  0  0  0  0  0  0
   -3.8472    0.8990    0.8958 H   0  0  0  0  0  0  0  0  0  0  0  0
   -1.4004    0.1656   -0.0141 C   0  0  0  0  0  0  0  0  0  0  0  0
   -2.7625   -1.4852   -0.9614 H   0  0  0  0  0  0  0  0  0  0  0  0
   -2.6279   -1.1915    0.7952 H   0  0  0  0  0  0  0  0  0  0  0  0
   -0.1789   -0.6760    0.0710 C   0  0  0  0  0  0  0  0  0  0  0  0
   -1.2985    0.8163    0.8028 H   0  0  0  0  0  0  0  0  0  0  0  0
   -1.3328    0.7887   -0.9330 H   0  0  0  0  0  0  0  0  0  0  0  0
   -0.2483   -1.2975    1.0645 H   0  0  0  0  0  0  0  0  0  0  0  0
    0.7636   -0.0742   -0.0066 H   0  0  0  0  0  0  0  0  0  0  0  0
   -0.1135   -1.2941   -0.7468 H   0  0  0  0  0  0  0  0  0  0  0  0
  1  3  1  0  0  0  0
  1  5  1  0  0  0  0
  2  1  1  0  0  0  0
  2  8  1  0  0  0  0
  4  1  1  0  0  0  0
  6  2  1  0  0  0  0
  6  9  1  0  0  0  0
  6 10  1  0  0  0  0
  7  2  1  0  0  0  0
  9 12  1  0  0  0  0
 11  6  1  0  0  0  0
 13  9  1  0  0  0  0
 14  9  1  0  0  0  0
M  END
$$$$
