14
butane_opt
C  -3.942083   0.266854   0.003325
C  -2.705479  -0.608646   0.038294
H  -4.880936  -0.349937   0.180762
H  -4.033662   0.966994  -0.917166
H  -3.934951   0.850981   0.814223
C  -1.401387   0.178656   0.026823
H  -2.709824  -1.305358  -0.806761
H  -2.800240  -1.243318   0.939343
C  -0.151378  -0.696706   0.025464
H  -1.371300   0.897161   0.897960
H  -1.396864   0.779771  -0.859908
H  -0.121428  -1.257045   0.897383
H   0.754146  -0.119051   0.017454
H  -0.122918  -1.373804  -0.856343
