butane_opt
 OpenBabel08242015423D

 14 13  0  0  0  0  0  0  0  0999 V2000
   -3.9773    0.2759   -0.0067 C   0  0  0  0  0  0  0  0  0  0  0  0
   -2.6814   -0.6401    0.0665 C   0  0  0  0  0  0  0  0  0  0  0  0
   -4.7933   -0.2598    0.1176 H   0  0  0  0  0  0  0  0  0  0  0  0
   -4.0107    1.0008   -0.9574 H   0  0  0  0  0  0  0  0  0  0  0  0
   -4.0186    0.8778    0.7901 H   0  0  0  0  0  0  0  0  0  0  0  0
   -1.3925    0.1684    0.0140 C   0  0  0  0  0  0  0  0  0  0  0  0
   -2.6784   -1.2668   -0.7624 H   0  0  0  0  0  0  0  0  0  0  0  0
   -2.6929   -1.3525    1.0104 H   0  0  0  0  0  0  0  0  0  0  0  0
   -0.1683   -0.6653    0.0160 C   0  0  0  0  0  0  0  0  0  0  0  0
   -1.2757    0.9432    0.9293 H   0  0  0  0  0  0  0  0  0  0  0  0
   -1.3679    0.7428   -0.7853 H   0  0  0  0  0  0  0  0  0  0  0  0
   -0.2047   -1.1892    0.8591 H   0  0  0  0  0  0  0  0  0  0  0  0
    0.7529   -0.0865    0.0888 H   0  0  0  0  0  0  0  0  0  0  0  0
   -0.1064   -1.5434   -0.9531 H   0  0  0  0  0  0  0  0  0  0  0  0
  1  2  1  0  0  0  0
  1  3  1  0  0  0  0
  1  5  1  0  0  0  0
  2  8  1  0  0  0  0
  4  1  1  0  0  0  0
  6  9  1  0  0  0  0
  6  2  1  0  0  0  0
  6 10  1  0  0  0  0
  7  2  1  0  0  0  0
  9 13  1  0  0  0  0
  9 12  1  0  0  0  0
 11  6  1  0  0  0  0
 14  9  1  0  0  0  0
M  END
$$$$
