14
butane_opt
C  -3.977277   0.275853  -0.006734
C  -2.681428  -0.640121   0.066520
H  -4.793280  -0.259841   0.117608
H  -4.010698   1.000755  -0.957370
H  -4.018647   0.877821   0.790117
C  -1.392499   0.168436   0.013998
H  -2.678416  -1.266789  -0.762377
H  -2.692922  -1.352543   1.010363
C  -0.168325  -0.665252   0.015969
H  -1.275729   0.943218   0.929311
H  -1.367904   0.742826  -0.785296
H  -0.204660  -1.189177   0.859070
H   0.752881  -0.086482   0.088790
H  -0.106418  -1.543412  -0.953073
