butane_opt
 OpenBabel08242015423D

 14 13  0  0  0  0  0  0  0  0999 V2000
   -3.9632    0.2848    0.0363 C   0  0  0  0  0  0  0  0  0  0  0  0
   -2.7122   -0.6291    0.0199 C   0  0  0  0  0  0  0  0  0  0  0  0
   -4.8826   -0.3315   -0.0807 H   0  0  0  0  0  0  0  0  0  0  0  0
   -3.9725    0.8349   -0.8041 H   0  0  0  0  0  0  0  0  0  0  0  0
   -4.0009    0.9979    0.9165 H   0  0  0  0  0  0  0  0  0  0  0  0
   -1.3871    0.1749    0.0163 C   0  0  0  0  0  0  0  0  0  0  0  0
   -2.6248   -1.3442   -0.8398 H   0  0  0  0  0  0  0  0  0  0  0  0
   -2.7042   -1.2258    0.8475 H   0  0  0  0  0  0  0  0  0  0  0  0
   -0.1633   -0.6854    0.0462 C   0  0  0  0  0  0  0  0  0  0  0  0
   -1.3708    0.7512    0.7879 H   0  0  0  0  0  0  0  0  0  0  0  0
   -1.3139    0.8337   -0.8970 H   0  0  0  0  0  0  0  0  0  0  0  0
   -0.0399   -1.4033    1.0230 H   0  0  0  0  0  0  0  0  0  0  0  0
    0.7759   -0.0146   -0.1753 H   0  0  0  0  0  0  0  0  0  0  0  0
   -0.1933   -1.3029   -0.7514 H   0  0  0  0  0  0  0  0  0  0  0  0
  1  5  1  0  0  0  0
  2  1  1  0  0  0  0
  2  8  1  0  0  0  0
  3  1  1  0  0  0  0
  4  1  1  0  0  0  0
  6  2  1  0  0  0  0
  6  9  1  0  0  0  0
  6 10  1  0  0  0  0
  7  2  1  0  0  0  0
  9 12  1  0  0  0  0
 11  6  1  0  0  0  0
 13  9  1  0  0  0  0
 14  9  1  0  0  0  0
M  END
$$$$
