14
butane_opt
C  -3.951954   0.286596   0.049946
C  -2.692011  -0.637821  -0.009457
H  -4.799336  -0.276405   0.265695
H  -4.090138   1.006399  -0.912397
H  -3.847159   0.898998   0.895764
C  -1.400419   0.165643  -0.014080
H  -2.762451  -1.485160  -0.961419
H  -2.627880  -1.191523   0.795194
C  -0.178901  -0.675983   0.070977
H  -1.298484   0.816294   0.802803
H  -1.332797   0.788702  -0.933048
H  -0.248322  -1.297493   1.064479
H   0.763649  -0.074203  -0.006568
H  -0.113475  -1.294138  -0.746802
