butane_opt
 OpenBabel08242015423D

 14 13  0  0  0  0  0  0  0  0999 V2000
   -3.9530    0.2508    0.0422 C   0  0  0  0  0  0  0  0  0  0  0  0
   -2.7102   -0.5936    0.0230 C   0  0  0  0  0  0  0  0  0  0  0  0
   -4.8512   -0.3283    0.1309 H   0  0  0  0  0  0  0  0  0  0  0  0
   -3.9705    0.8306   -0.8333 H   0  0  0  0  0  0  0  0  0  0  0  0
   -3.9745    0.9233    0.9254 H   0  0  0  0  0  0  0  0  0  0  0  0
   -1.3910    0.1933   -0.0359 C   0  0  0  0  0  0  0  0  0  0  0  0
   -2.7730   -1.3131   -0.8747 H   0  0  0  0  0  0  0  0  0  0  0  0
   -2.7312   -1.2304    0.9423 H   0  0  0  0  0  0  0  0  0  0  0  0
   -0.1381   -0.7028    0.0658 C   0  0  0  0  0  0  0  0  0  0  0  0
   -1.5211    0.8515    0.7431 H   0  0  0  0  0  0  0  0  0  0  0  0
   -1.3828    0.8823   -0.9776 H   0  0  0  0  0  0  0  0  0  0  0  0
   -0.2024   -1.1857    0.9186 H   0  0  0  0  0  0  0  0  0  0  0  0
    0.7853   -0.1554    0.1837 H   0  0  0  0  0  0  0  0  0  0  0  0
   -0.0868   -1.5238   -0.8683 H   0  0  0  0  0  0  0  0  0  0  0  0
  1  3  1  0  0  0  0
  1  5  1  0  0  0  0
  2  1  1  0  0  0  0
  2  8  1  0  0  0  0
  4  1  1  0  0  0  0
  6  2  1  0  0  0  0
  6  9  1  0  0  0  0
  6 10  1  0  0  0  0
  7  2  1  0  0  0  0
  9 13  1  0  0  0  0
  9 12  1  0  0  0  0
 11  6  1  0  0  0  0
 14  9  1  0  0  0  0
M  END
$$$$
