14
butane_opt
C  -3.929885   0.249574   0.078567
C  -2.696887  -0.611622  -0.036394
H  -4.858060  -0.339910   0.185326
H  -4.090138   0.921040  -0.855672
H  -3.907603   0.877452   0.938557
C  -1.410639   0.215346  -0.045046
H  -2.735025  -1.353079  -0.971254
H  -2.591395  -1.183766   0.806791
C  -0.167595  -0.701827   0.076555
H  -1.495561   0.901639   0.823487
H  -1.314436   0.728453  -0.851040
H  -0.148908  -1.486695   1.104115
H   0.727065  -0.132020   0.007467
H  -0.128792  -1.218343  -0.628097
