14
butane_opt
C  -3.923768   0.256814   0.063897
C  -2.704955  -0.604970  -0.049861
H  -4.800491  -0.323374   0.311887
H  -4.135466   0.943402  -0.857746
H  -3.784785   0.811983   0.930448
C  -1.418045   0.195227  -0.019820
H  -2.682944  -1.361293  -0.928441
H  -2.733298  -1.195963   0.835555
C  -0.168659  -0.699530   0.087824
H  -1.460621   0.819339   0.817409
H  -1.394546   0.823101  -0.933530
H  -0.159829  -1.343056   0.998080
H   0.730806  -0.105064  -0.021413
H  -0.024353  -1.290449  -0.704124
