14
butane_opt
C  -3.952024   0.255374  -0.049070
C  -2.713977  -0.617943   0.127345
H  -4.889330  -0.363469  -0.196994
H  -3.847013   0.798721  -0.914214
H  -4.127857   1.043952   0.873565
C  -1.392035   0.206279   0.070009
H  -2.602623  -1.246314  -0.683356
H  -2.790244  -1.292728   1.051218
C  -0.157302  -0.709102  -0.021446
H  -1.287860   0.928547   0.923051
H  -1.431531   0.878287  -0.841716
H  -0.025672  -1.288034   0.834919
H   0.733251  -0.140640  -0.128909
H  -0.157165  -1.427233  -0.987225
