14
butane_opt
C  -3.933436   0.252729   0.061297
C  -2.705478  -0.610145   0.018819
H  -4.810331  -0.371786  -0.132042
H  -4.007244   0.656115  -0.700690
H  -3.978597   1.098752   1.013508
C  -1.419207   0.204455  -0.062656
H  -2.788944  -1.251925  -0.854653
H  -2.806204  -1.224679   0.911614
C  -0.141138  -0.707037   0.070929
H  -1.398779   0.906305   0.777714
H  -1.435704   0.879890  -0.995204
H  -0.156229  -1.373744   1.016270
H   0.741921  -0.144155   0.100638
H   0.010122  -1.339815  -0.729972
