14
butane_opt
C  -3.915902   0.243714   0.006346
C  -2.703531  -0.603144   0.023608
H  -4.853635  -0.345562   0.267672
H  -4.024037   1.040472  -0.991136
H  -3.793659   0.762532   0.764628
C  -1.410069   0.204859   0.037404
H  -2.676006  -1.217959  -0.772524
H  -2.825539  -1.182239   0.947424
C  -0.167929  -0.711857   0.022678
H  -1.472047   0.926460   0.912911
H  -1.445975   0.812341  -0.824646
H  -0.175710  -1.276013   0.885763
H   0.740220  -0.083758   0.016365
H  -0.125811  -1.518455  -0.877635
