butane_opt
 OpenBabel08242015423D

 14 13  0  0  0  0  0  0  0  0999 V2000
   -3.9609    0.2753    0.0702 C   0  0  0  0  0  0  0  0  0  0  0  0
   -2.6751   -0.6281   -0.0323 C   0  0  0  0  0  0  0  0  0  0  0  0
   -4.8868   -0.3441    0.2553 H   0  0  0  0  0  0  0  0  0  0  0  0
   -4.0560    1.0760   -0.9617 H   0  0  0  0  0  0  0  0  0  0  0  0
   -3.7994    0.8267    0.8754 H   0  0  0  0  0  0  0  0  0  0  0  0
   -1.3884    0.1598   -0.0191 C   0  0  0  0  0  0  0  0  0  0  0  0
   -2.6876   -1.3404   -0.8833 H   0  0  0  0  0  0  0  0  0  0  0  0
   -2.6395   -1.1625    0.8179 H   0  0  0  0  0  0  0  0  0  0  0  0
   -0.1830   -0.6774    0.0784 C   0  0  0  0  0  0  0  0  0  0  0  0
   -1.5046    0.8150    0.7854 H   0  0  0  0  0  0  0  0  0  0  0  0
   -1.3334    0.8143   -0.9005 H   0  0  0  0  0  0  0  0  0  0  0  0
   -0.2015   -1.2660    0.9426 H   0  0  0  0  0  0  0  0  0  0  0  0
    0.7690   -0.0596    0.0766 H   0  0  0  0  0  0  0  0  0  0  0  0
   -0.1970   -1.3753   -0.7598 H   0  0  0  0  0  0  0  0  0  0  0  0
  1  3  1  0  0  0  0
  1  5  1  0  0  0  0
  2  6  1  0  0  0  0
  2  1  1  0  0  0  0
  2  8  1  0  0  0  0
  4  1  1  0  0  0  0
  6  9  1  0  0  0  0
  6 10  1  0  0  0  0
  7  2  1  0  0  0  0
  9 12  1  0  0  0  0
 11  6  1  0  0  0  0
 13  9  1  0  0  0  0
 14  9  1  0  0  0  0
M  END
$$$$
