14
butane_opt
C  -3.937675   0.252062  -0.024895
C  -2.700804  -0.602894   0.103100
H  -4.790741  -0.339411  -0.114857
H  -3.841694   0.823435  -0.882309
H  -4.115773   0.986563   0.896994
C  -1.406098   0.196758   0.029449
H  -2.630036  -1.239195  -0.704971
H  -2.754988  -1.324229   1.035195
C  -0.158320  -0.691059   0.005508
H  -1.416772   0.817534   0.826155
H  -1.415884   0.797758  -0.822581
H  -0.082945  -1.183625   0.790631
H   0.694701  -0.138368   0.022222
H  -0.223022  -1.531375  -0.965596
