butane_opt
 OpenBabel08242015423D

 14 13  0  0  0  0  0  0  0  0999 V2000
   -3.9565    0.2771    0.0771 C   0  0  0  0  0  0  0  0  0  0  0  0
   -2.7115   -0.6485   -0.0389 C   0  0  0  0  0  0  0  0  0  0  0  0
   -4.8831   -0.2722    0.2504 H   0  0  0  0  0  0  0  0  0  0  0  0
   -4.1971    1.0634   -0.8953 H   0  0  0  0  0  0  0  0  0  0  0  0
   -3.9260    0.8343    0.9055 H   0  0  0  0  0  0  0  0  0  0  0  0
   -1.3905    0.1777   -0.0374 C   0  0  0  0  0  0  0  0  0  0  0  0
   -2.7268   -1.3543   -0.9563 H   0  0  0  0  0  0  0  0  0  0  0  0
   -2.6173   -1.2327    0.8209 H   0  0  0  0  0  0  0  0  0  0  0  0
   -0.1489   -0.6869    0.0756 C   0  0  0  0  0  0  0  0  0  0  0  0
   -1.4160    0.9420    0.8856 H   0  0  0  0  0  0  0  0  0  0  0  0
   -1.2902    0.7983   -0.9254 H   0  0  0  0  0  0  0  0  0  0  0  0
   -0.2225   -1.3654    1.0357 H   0  0  0  0  0  0  0  0  0  0  0  0
    0.8039   -0.0507    0.0978 H   0  0  0  0  0  0  0  0  0  0  0  0
   -0.0552   -1.2674   -0.7106 H   0  0  0  0  0  0  0  0  0  0  0  0
  1  3  1  0  0  0  0
  1  5  1  0  0  0  0
  2  6  1  0  0  0  0
  2  1  1  0  0  0  0
  2  8  1  0  0  0  0
  4  1  1  0  0  0  0
  6  9  1  0  0  0  0
  6 10  1  0  0  0  0
  7  2  1  0  0  0  0
  9 13  1  0  0  0  0
  9 12  1  0  0  0  0
 11  6  1  0  0  0  0
 14  9  1  0  0  0  0
M  END
$$$$
