14
butane_opt
C  -3.933427   0.250718   0.043022
C  -2.711081  -0.584540  -0.016450
H  -4.909751  -0.366361   0.091806
H  -3.914650   0.781823  -0.793828
H  -3.793068   0.895023   0.936633
C  -1.429104   0.201750   0.003825
H  -2.646226  -1.307615  -0.888041
H  -2.737655  -1.140581   0.878372
C  -0.152598  -0.712882   0.052083
H  -1.397509   0.847684   0.842913
H  -1.368980   0.798520  -0.881922
H  -0.063744  -1.528724   1.081092
H   0.729249  -0.138245  -0.122394
H  -0.203692  -1.177471  -0.663453
