butane_opt
 OpenBabel08242015423D

 14 13  0  0  0  0  0  0  0  0999 V2000
   -3.9328    0.2827    0.0262 C   0  0  0  0  0  0  0  0  0  0  0  0
   -2.7056   -0.6319    0.0154 C   0  0  0  0  0  0  0  0  0  0  0  0
   -4.8450   -0.3145    0.0215 H   0  0  0  0  0  0  0  0  0  0  0  0
   -3.9562    0.8071   -0.8034 H   0  0  0  0  0  0  0  0  0  0  0  0
   -3.9081    0.9449    0.8889 H   0  0  0  0  0  0  0  0  0  0  0  0
   -1.4035    0.1855    0.0173 C   0  0  0  0  0  0  0  0  0  0  0  0
   -2.7102   -1.3812   -0.8954 H   0  0  0  0  0  0  0  0  0  0  0  0
   -2.6596   -1.2276    0.9101 H   0  0  0  0  0  0  0  0  0  0  0  0
   -0.1765   -0.6830    0.0455 C   0  0  0  0  0  0  0  0  0  0  0  0
   -1.3871    0.8493    0.8478 H   0  0  0  0  0  0  0  0  0  0  0  0
   -1.3233    0.8745   -0.9455 H   0  0  0  0  0  0  0  0  0  0  0  0
   -0.0316   -1.4272    1.0455 H   0  0  0  0  0  0  0  0  0  0  0  0
    0.7200   -0.1505   -0.1095 H   0  0  0  0  0  0  0  0  0  0  0  0
   -0.3070   -1.2857   -0.7563 H   0  0  0  0  0  0  0  0  0  0  0  0
  1  5  1  0  0  0  0
  2  6  1  0  0  0  0
  2  1  1  0  0  0  0
  2  8  1  0  0  0  0
  3  1  1  0  0  0  0
  4  1  1  0  0  0  0
  6  9  1  0  0  0  0
  6 10  1  0  0  0  0
  7  2  1  0  0  0  0
  9 12  1  0  0  0  0
 11  6  1  0  0  0  0
 13  9  1  0  0  0  0
 14  9  1  0  0  0  0
M  END
$$$$
