butane_opt
 OpenBabel08242015423D

 14 13  0  0  0  0  0  0  0  0999 V2000
   -3.9580    0.2869    0.0644 C   0  0  0  0  0  0  0  0  0  0  0  0
   -2.7093   -0.6515   -0.0229 C   0  0  0  0  0  0  0  0  0  0  0  0
   -4.8103   -0.2821    0.0497 H   0  0  0  0  0  0  0  0  0  0  0  0
   -3.9860    0.8368   -0.8090 H   0  0  0  0  0  0  0  0  0  0  0  0
   -4.0092    1.0619    0.9578 H   0  0  0  0  0  0  0  0  0  0  0  0
   -1.3854    0.1750   -0.0126 C   0  0  0  0  0  0  0  0  0  0  0  0
   -2.8014   -1.4266   -0.9894 H   0  0  0  0  0  0  0  0  0  0  0  0
   -2.6755   -1.1876    0.8308 H   0  0  0  0  0  0  0  0  0  0  0  0
   -0.1470   -0.6791    0.0866 C   0  0  0  0  0  0  0  0  0  0  0  0
   -1.4100    0.8365    0.7880 H   0  0  0  0  0  0  0  0  0  0  0  0
   -1.3855    0.8628   -0.9667 H   0  0  0  0  0  0  0  0  0  0  0  0
   -0.0505   -1.5084    1.1321 H   0  0  0  0  0  0  0  0  0  0  0  0
    0.7851   -0.0395   -0.2041 H   0  0  0  0  0  0  0  0  0  0  0  0
   -0.2965   -1.1893   -0.6988 H   0  0  0  0  0  0  0  0  0  0  0  0
  1  5  1  0  0  0  0
  2  6  1  0  0  0  0
  2  1  1  0  0  0  0
  2  8  1  0  0  0  0
  3  1  1  0  0  0  0
  4  1  1  0  0  0  0
  6  9  1  0  0  0  0
  6 10  1  0  0  0  0
  7  2  1  0  0  0  0
  9 12  1  0  0  0  0
 11  6  1  0  0  0  0
 13  9  1  0  0  0  0
 14  9  1  0  0  0  0
M  END
$$$$
