14
butane_opt
C  -3.933807   0.276407   0.077373
C  -2.695889  -0.618794  -0.054761
H  -4.844518  -0.299509   0.240701
H  -4.116227   0.958485  -0.865259
H  -3.842123   0.912776   0.966813
C  -1.393473   0.155816  -0.035545
H  -2.770350  -1.354302  -0.906883
H  -2.573480  -1.206746   0.811842
C  -0.171417  -0.690269   0.088199
H  -1.461728   0.841062   0.801303
H  -1.341498   0.786191  -0.910167
H  -0.354811  -1.355321   1.048884
H   0.781260  -0.028412   0.015702
H  -0.154832  -1.193858  -0.678245
