butane_opt
 OpenBabel08242015423D

 14 13  0  0  0  0  0  0  0  0999 V2000
   -3.9480    0.2562    0.0055 C   0  0  0  0  0  0  0  0  0  0  0  0
   -2.7141   -0.6079    0.0448 C   0  0  0  0  0  0  0  0  0  0  0  0
   -4.8323   -0.3032    0.0390 H   0  0  0  0  0  0  0  0  0  0  0  0
   -3.9727    0.8662   -0.8932 H   0  0  0  0  0  0  0  0  0  0  0  0
   -3.9849    0.9047    0.8579 H   0  0  0  0  0  0  0  0  0  0  0  0
   -1.3935    0.1967    0.0313 C   0  0  0  0  0  0  0  0  0  0  0  0
   -2.7484   -1.3150   -0.8206 H   0  0  0  0  0  0  0  0  0  0  0  0
   -2.7426   -1.2184    0.9289 H   0  0  0  0  0  0  0  0  0  0  0  0
   -0.1491   -0.7030    0.0286 C   0  0  0  0  0  0  0  0  0  0  0  0
   -1.4379    0.9059    0.9003 H   0  0  0  0  0  0  0  0  0  0  0  0
   -1.3711    0.8265   -0.8769 H   0  0  0  0  0  0  0  0  0  0  0  0
   -0.0604   -1.3703    0.9303 H   0  0  0  0  0  0  0  0  0  0  0  0
    0.7571   -0.1316   -0.1259 H   0  0  0  0  0  0  0  0  0  0  0  0
   -0.1748   -1.3364   -0.8243 H   0  0  0  0  0  0  0  0  0  0  0  0
  1  3  1  0  0  0  0
  1  2  1  0  0  0  0
  1  5  1  0  0  0  0
  2  8  1  0  0  0  0
  4  1  1  0  0  0  0
  6  2  1  0  0  0  0
  6 10  1  0  0  0  0
  7  2  1  0  0  0  0
  9  6  1  0  0  0  0
  9 12  1  0  0  0  0
 11  6  1  0  0  0  0
 13  9  1  0  0  0  0
 14  9  1  0  0  0  0
M  END
$$$$
