butane_opt
 OpenBabel08242015423D

 14 13  0  0  0  0  0  0  0  0999 V2000
   -3.9133    0.2701    0.0481 C   0  0  0  0  0  0  0  0  0  0  0  0
   -2.7025   -0.6185    0.0063 C   0  0  0  0  0  0  0  0  0  0  0  0
   -4.8193   -0.3148    0.2189 H   0  0  0  0  0  0  0  0  0  0  0  0
   -4.0199    0.9642   -0.9091 H   0  0  0  0  0  0  0  0  0  0  0  0
   -3.9730    0.8888    0.9122 H   0  0  0  0  0  0  0  0  0  0  0  0
   -1.4171    0.1773   -0.0356 C   0  0  0  0  0  0  0  0  0  0  0  0
   -2.8329   -1.3647   -0.8844 H   0  0  0  0  0  0  0  0  0  0  0  0
   -2.6794   -1.2313    0.8978 H   0  0  0  0  0  0  0  0  0  0  0  0
   -0.1669   -0.6943    0.0637 C   0  0  0  0  0  0  0  0  0  0  0  0
   -1.4353    0.9086    0.8645 H   0  0  0  0  0  0  0  0  0  0  0  0
   -1.3000    0.7546   -0.9536 H   0  0  0  0  0  0  0  0  0  0  0  0
   -0.2389   -1.2300    0.9338 H   0  0  0  0  0  0  0  0  0  0  0  0
    0.7395   -0.0929    0.1415 H   0  0  0  0  0  0  0  0  0  0  0  0
   -0.0650   -1.3592   -0.7881 H   0  0  0  0  0  0  0  0  0  0  0  0
  1  3  1  0  0  0  0
  1  5  1  0  0  0  0
  2  1  1  0  0  0  0
  2  8  1  0  0  0  0
  4  1  1  0  0  0  0
  6  2  1  0  0  0  0
  6  9  1  0  0  0  0
  6 10  1  0  0  0  0
  7  2  1  0  0  0  0
  9 13  1  0  0  0  0
  9 12  1  0  0  0  0
 11  6  1  0  0  0  0
 14  9  1  0  0  0  0
M  END
$$$$
