14
butane_opt
C  -3.931121   0.285560   0.069312
C  -2.693286  -0.646155  -0.000887
H  -4.844501  -0.316531  -0.170435
H  -3.952526   0.776128  -0.751300
H  -3.972365   1.191511   1.068922
C  -1.403244   0.166569  -0.044513
H  -2.757149  -1.340604  -0.878441
H  -2.565658  -1.307925   0.891954
C  -0.181957  -0.669582   0.078399
H  -1.393477   0.723471   0.782974
H  -1.285349   0.907306  -1.032300
H  -0.245280  -1.346192   1.006212
H   0.717136  -0.089872   0.018002
H  -0.205579  -1.302344  -0.716029
