14
butane_opt
C  -3.974818   0.283676   0.082348
C  -2.691779  -0.654847  -0.014756
H  -4.825306  -0.263071   0.028135
H  -3.977648   0.830273  -0.801220
H  -3.953216   0.960474   0.981674
C  -1.401330   0.178309  -0.071916
H  -2.807275  -1.321424  -0.870294
H  -2.616841  -1.273609   0.904624
C  -0.151484  -0.673690   0.080417
H  -1.377411   0.878863   0.810952
H  -1.368592   0.885776  -1.019539
H  -0.213316  -1.256364   0.987166
H   0.728630  -0.126562   0.263285
H   0.001934  -1.386290  -0.759476
