14
butane_opt
C  -3.913342   0.270076   0.048131
C  -2.702467  -0.618528   0.006338
H  -4.819339  -0.314772   0.218919
H  -4.019947   0.964182  -0.909148
H  -3.972982   0.888811   0.912186
C  -1.417065   0.177252  -0.035635
H  -2.832940  -1.364737  -0.884417
H  -2.679416  -1.231281   0.897769
C  -0.166862  -0.694262   0.063740
H  -1.435278   0.908583   0.864484
H  -1.300006   0.754560  -0.953608
H  -0.238946  -1.230037   0.933826
H   0.739531  -0.092943   0.141464
H  -0.065043  -1.359230  -0.788125
