butane_opt
 OpenBabel08242015423D

 14 13  0  0  0  0  0  0  0  0999 V2000
   -3.9617    0.2951    0.0655 C   0  0  0  0  0  0  0  0  0  0  0  0
   -2.6875   -0.6600   -0.0411 C   0  0  0  0  0  0  0  0  0  0  0  0
   -4.8742   -0.2838    0.3095 H   0  0  0  0  0  0  0  0  0  0  0  0
   -4.0829    0.9412   -0.8837 H   0  0  0  0  0  0  0  0  0  0  0  0
   -3.9026    0.8526    0.8702 H   0  0  0  0  0  0  0  0  0  0  0  0
   -1.3972    0.1747   -0.0236 C   0  0  0  0  0  0  0  0  0  0  0  0
   -2.6939   -1.3722   -0.9065 H   0  0  0  0  0  0  0  0  0  0  0  0
   -2.6550   -1.2029    0.8233 H   0  0  0  0  0  0  0  0  0  0  0  0
   -0.1693   -0.6660    0.0885 C   0  0  0  0  0  0  0  0  0  0  0  0
   -1.4624    0.8416    0.8095 H   0  0  0  0  0  0  0  0  0  0  0  0
   -1.3088    0.7843   -0.9036 H   0  0  0  0  0  0  0  0  0  0  0  0
   -0.0930   -1.3382    1.0041 H   0  0  0  0  0  0  0  0  0  0  0  0
    0.7696   -0.0802   -0.0281 H   0  0  0  0  0  0  0  0  0  0  0  0
   -0.1499   -1.3221   -0.7273 H   0  0  0  0  0  0  0  0  0  0  0  0
  1  3  1  0  0  0  0
  1  5  1  0  0  0  0
  2  6  1  0  0  0  0
  2  1  1  0  0  0  0
  2  8  1  0  0  0  0
  4  1  1  0  0  0  0
  6  9  1  0  0  0  0
  6 10  1  0  0  0  0
  7  2  1  0  0  0  0
  9 12  1  0  0  0  0
 11  6  1  0  0  0  0
 13  9  1  0  0  0  0
 14  9  1  0  0  0  0
M  END
$$$$
