butane_opt
 OpenBabel08242015423D

 14 13  0  0  0  0  0  0  0  0999 V2000
   -3.9589    0.2541    0.0709 C   0  0  0  0  0  0  0  0  0  0  0  0
   -2.7172   -0.6035   -0.0238 C   0  0  0  0  0  0  0  0  0  0  0  0
   -4.9207   -0.3607    0.1698 H   0  0  0  0  0  0  0  0  0  0  0  0
   -3.9821    0.9421   -0.8790 H   0  0  0  0  0  0  0  0  0  0  0  0
   -3.7878    0.8329    0.8819 H   0  0  0  0  0  0  0  0  0  0  0  0
   -1.3947    0.2113   -0.0462 C   0  0  0  0  0  0  0  0  0  0  0  0
   -2.8637   -1.3256   -0.8988 H   0  0  0  0  0  0  0  0  0  0  0  0
   -2.6776   -1.1731    0.8211 H   0  0  0  0  0  0  0  0  0  0  0  0
   -0.1362   -0.7153    0.0855 C   0  0  0  0  0  0  0  0  0  0  0  0
   -1.4248    0.9121    0.8387 H   0  0  0  0  0  0  0  0  0  0  0  0
   -1.3951    0.8108   -0.8652 H   0  0  0  0  0  0  0  0  0  0  0  0
   -0.1357   -1.3324    0.9789 H   0  0  0  0  0  0  0  0  0  0  0  0
    0.7074   -0.1877    0.0213 H   0  0  0  0  0  0  0  0  0  0  0  0
   -0.0567   -1.3522   -0.6865 H   0  0  0  0  0  0  0  0  0  0  0  0
  1  3  1  0  0  0  0
  1  5  1  0  0  0  0
  2  1  1  0  0  0  0
  2  8  1  0  0  0  0
  4  1  1  0  0  0  0
  6  2  1  0  0  0  0
  6  9  1  0  0  0  0
  6 10  1  0  0  0  0
  7  2  1  0  0  0  0
  9 12  1  0  0  0  0
 11  6  1  0  0  0  0
 13  9  1  0  0  0  0
 14  9  1  0  0  0  0
M  END
$$$$
