butane_opt
 OpenBabel08242015423D

 14 13  0  0  0  0  0  0  0  0999 V2000
   -3.9141    0.2446   -0.0260 C   0  0  0  0  0  0  0  0  0  0  0  0
   -2.7107   -0.5864    0.0658 C   0  0  0  0  0  0  0  0  0  0  0  0
   -4.8683   -0.3957    0.0679 H   0  0  0  0  0  0  0  0  0  0  0  0
   -3.9803    0.8593   -0.9183 H   0  0  0  0  0  0  0  0  0  0  0  0
   -3.9288    0.8609    0.7936 H   0  0  0  0  0  0  0  0  0  0  0  0
   -1.4207    0.2112    0.0670 C   0  0  0  0  0  0  0  0  0  0  0  0
   -2.6509   -1.3109   -0.8055 H   0  0  0  0  0  0  0  0  0  0  0  0
   -2.7500   -1.1684    0.9696 H   0  0  0  0  0  0  0  0  0  0  0  0
   -0.1555   -0.7240   -0.0028 C   0  0  0  0  0  0  0  0  0  0  0  0
   -1.4692    0.9086    0.9434 H   0  0  0  0  0  0  0  0  0  0  0  0
   -1.4400    0.7795   -0.7839 H   0  0  0  0  0  0  0  0  0  0  0  0
   -0.0354   -1.3838    0.9672 H   0  0  0  0  0  0  0  0  0  0  0  0
    0.7630   -0.1032   -0.2199 H   0  0  0  0  0  0  0  0  0  0  0  0
   -0.2364   -1.2685   -0.8234 H   0  0  0  0  0  0  0  0  0  0  0  0
  1  2  1  0  0  0  0
  1  3  1  0  0  0  0
  1  5  1  0  0  0  0
  2  6  1  0  0  0  0
  2  8  1  0  0  0  0
  4  1  1  0  0  0  0
  6 10  1  0  0  0  0
  7  2  1  0  0  0  0
  9  6  1  0  0  0  0
  9 12  1  0  0  0  0
 11  6  1  0  0  0  0
 13  9  1  0  0  0  0
 14  9  1  0  0  0  0
M  END
$$$$
