butane_opt
 OpenBabel08242015423D

 14 13  0  0  0  0  0  0  0  0999 V2000
   -3.9488    0.2761    0.0040 C   0  0  0  0  0  0  0  0  0  0  0  0
   -2.7041   -0.6291    0.0632 C   0  0  0  0  0  0  0  0  0  0  0  0
   -4.8311   -0.2716    0.1161 H   0  0  0  0  0  0  0  0  0  0  0  0
   -4.0092    0.9037   -0.8919 H   0  0  0  0  0  0  0  0  0  0  0  0
   -3.9448    0.9968    0.8448 H   0  0  0  0  0  0  0  0  0  0  0  0
   -1.3902    0.1578   -0.0001 C   0  0  0  0  0  0  0  0  0  0  0  0
   -2.6854   -1.2876   -0.7689 H   0  0  0  0  0  0  0  0  0  0  0  0
   -2.6460   -1.2575    0.9449 H   0  0  0  0  0  0  0  0  0  0  0  0
   -0.1603   -0.6862    0.0376 C   0  0  0  0  0  0  0  0  0  0  0  0
   -1.3848    0.7285    0.8154 H   0  0  0  0  0  0  0  0  0  0  0  0
   -1.4039    0.8741   -0.9508 H   0  0  0  0  0  0  0  0  0  0  0  0
   -0.2915   -1.0348    0.7674 H   0  0  0  0  0  0  0  0  0  0  0  0
    0.7921   -0.0462    0.2278 H   0  0  0  0  0  0  0  0  0  0  0  0
   -0.1755   -1.4988   -0.9388 H   0  0  0  0  0  0  0  0  0  0  0  0
  1  2  1  0  0  0  0
  1  3  1  0  0  0  0
  1  5  1  0  0  0  0
  2  8  1  0  0  0  0
  4  1  1  0  0  0  0
  6  9  1  0  0  0  0
  6  2  1  0  0  0  0
  6 10  1  0  0  0  0
  7  2  1  0  0  0  0
  9 13  1  0  0  0  0
  9 12  1  0  0  0  0
 11  6  1  0  0  0  0
 14  9  1  0  0  0  0
M  END
$$$$
