butane_opt
 OpenBabel08242015423D

 14 13  0  0  0  0  0  0  0  0999 V2000
   -3.9082    0.2625    0.0506 C   0  0  0  0  0  0  0  0  0  0  0  0
   -2.6999   -0.6104   -0.0278 C   0  0  0  0  0  0  0  0  0  0  0  0
   -4.8529   -0.3733    0.0864 H   0  0  0  0  0  0  0  0  0  0  0  0
   -4.0010    0.7713   -0.8027 H   0  0  0  0  0  0  0  0  0  0  0  0
   -3.9004    0.9218    0.9452 H   0  0  0  0  0  0  0  0  0  0  0  0
   -1.4279    0.1973    0.0002 C   0  0  0  0  0  0  0  0  0  0  0  0
   -2.8323   -1.2565   -0.9011 H   0  0  0  0  0  0  0  0  0  0  0  0
   -2.6878   -1.2355    0.8398 H   0  0  0  0  0  0  0  0  0  0  0  0
   -0.1573   -0.7064    0.0585 C   0  0  0  0  0  0  0  0  0  0  0  0
   -1.4880    0.9364    0.8816 H   0  0  0  0  0  0  0  0  0  0  0  0
   -1.3897    0.8581   -0.9048 H   0  0  0  0  0  0  0  0  0  0  0  0
   -0.0420   -1.5132    1.1050 H   0  0  0  0  0  0  0  0  0  0  0  0
    0.7318   -0.1455   -0.1317 H   0  0  0  0  0  0  0  0  0  0  0  0
   -0.2379   -1.1545   -0.6316 H   0  0  0  0  0  0  0  0  0  0  0  0
  1  3  1  0  0  0  0
  1  5  1  0  0  0  0
  2  6  1  0  0  0  0
  2  1  1  0  0  0  0
  2  8  1  0  0  0  0
  4  1  1  0  0  0  0
  6  9  1  0  0  0  0
  6 10  1  0  0  0  0
  7  2  1  0  0  0  0
  9 12  1  0  0  0  0
 11  6  1  0  0  0  0
 13  9  1  0  0  0  0
 14  9  1  0  0  0  0
M  END
$$$$
