butane_opt
 OpenBabel08242015423D

 14 13  0  0  0  0  0  0  0  0999 V2000
   -3.9271    0.2362    0.0669 C   0  0  0  0  0  0  0  0  0  0  0  0
   -2.7065   -0.5967   -0.0183 C   0  0  0  0  0  0  0  0  0  0  0  0
   -4.7987   -0.3485   -0.0107 H   0  0  0  0  0  0  0  0  0  0  0  0
   -3.9197    0.8758   -0.8505 H   0  0  0  0  0  0  0  0  0  0  0  0
   -3.9145    0.9950    0.9774 H   0  0  0  0  0  0  0  0  0  0  0  0
   -1.4004    0.2136   -0.0208 C   0  0  0  0  0  0  0  0  0  0  0  0
   -2.8039   -1.2994   -0.9079 H   0  0  0  0  0  0  0  0  0  0  0  0
   -2.7467   -1.1553    0.8417 H   0  0  0  0  0  0  0  0  0  0  0  0
   -0.1657   -0.7194    0.0679 C   0  0  0  0  0  0  0  0  0  0  0  0
   -1.4731    0.9107    0.8690 H   0  0  0  0  0  0  0  0  0  0  0  0
   -1.4198    0.7801   -0.8616 H   0  0  0  0  0  0  0  0  0  0  0  0
   -0.1113   -1.5533    1.1089 H   0  0  0  0  0  0  0  0  0  0  0  0
    0.7188   -0.1360   -0.1711 H   0  0  0  0  0  0  0  0  0  0  0  0
   -0.1517   -1.1420   -0.6842 H   0  0  0  0  0  0  0  0  0  0  0  0
  1  5  1  0  0  0  0
  2  1  1  0  0  0  0
  2  8  1  0  0  0  0
  3  1  1  0  0  0  0
  4  1  1  0  0  0  0
  6  2  1  0  0  0  0
  6  9  1  0  0  0  0
  6 10  1  0  0  0  0
  7  2  1  0  0  0  0
  9 12  1  0  0  0  0
 11  6  1  0  0  0  0
 13  9  1  0  0  0  0
 14  9  1  0  0  0  0
M  END
$$$$
