14
butane_opt
C  -3.908157   0.262455   0.050645
C  -2.699859  -0.610427  -0.027820
H  -4.852866  -0.373340   0.086426
H  -4.001020   0.771260  -0.802667
H  -3.900400   0.921840   0.945157
C  -1.427883   0.197277   0.000168
H  -2.832276  -1.256465  -0.901096
H  -2.687811  -1.235523   0.839798
C  -0.157255  -0.706416   0.058493
H  -1.487953   0.936430   0.881622
H  -1.389710   0.858065  -0.904751
H  -0.041983  -1.513165   1.104953
H   0.731788  -0.145455  -0.131696
H  -0.237897  -1.154513  -0.631583
