butane_opt
 OpenBabel08242015423D

 14 13  0  0  0  0  0  0  0  0999 V2000
   -3.9401    0.2604    0.0389 C   0  0  0  0  0  0  0  0  0  0  0  0
   -2.7249   -0.6074    0.0371 C   0  0  0  0  0  0  0  0  0  0  0  0
   -4.8920   -0.3990   -0.2180 H   0  0  0  0  0  0  0  0  0  0  0  0
   -3.9559    0.6370   -0.7102 H   0  0  0  0  0  0  0  0  0  0  0  0
   -4.0107    1.1383    1.0350 H   0  0  0  0  0  0  0  0  0  0  0  0
   -1.3880    0.2125   -0.0268 C   0  0  0  0  0  0  0  0  0  0  0  0
   -2.7385   -1.3236   -0.8303 H   0  0  0  0  0  0  0  0  0  0  0  0
   -2.7611   -1.1793    0.9073 H   0  0  0  0  0  0  0  0  0  0  0  0
   -0.1477   -0.6969    0.0691 C   0  0  0  0  0  0  0  0  0  0  0  0
   -1.3592    0.7051    0.7302 H   0  0  0  0  0  0  0  0  0  0  0  0
   -1.4413    0.9134   -0.9894 H   0  0  0  0  0  0  0  0  0  0  0  0
   -0.0492   -1.4150    0.9770 H   0  0  0  0  0  0  0  0  0  0  0  0
    0.6781   -0.2024   -0.0562 H   0  0  0  0  0  0  0  0  0  0  0  0
   -0.0779   -1.3810   -0.7959 H   0  0  0  0  0  0  0  0  0  0  0  0
  1  5  1  0  0  0  0
  2  1  1  0  0  0  0
  2  8  1  0  0  0  0
  3  1  1  0  0  0  0
  4  1  1  0  0  0  0
  6  2  1  0  0  0  0
  6  9  1  0  0  0  0
  6 10  1  0  0  0  0
  7  2  1  0  0  0  0
  9 12  1  0  0  0  0
 11  6  1  0  0  0  0
 13  9  1  0  0  0  0
 14  9  1  0  0  0  0
M  END
$$$$
