14
butane_opt
C  -3.942456   0.273160   0.023528
C  -2.672688  -0.630779   0.015826
H  -4.844763  -0.272758   0.256731
H  -4.110567   1.117282  -0.991497
H  -3.847688   0.753753   0.766360
C  -1.413557   0.161075   0.026924
H  -2.706411  -1.330302  -0.898129
H  -2.625593  -1.233364   0.905460
C  -0.173967  -0.677720   0.022586
H  -1.352942   0.907233   0.922591
H  -1.398128   0.746018  -0.846429
H  -0.317758  -1.290173   0.975962
H   0.799598  -0.019994   0.092654
H  -0.184528  -1.353682  -0.838178
