14
butane_opt
C  -3.927130   0.236203   0.066894
C  -2.706490  -0.596700  -0.018301
H  -4.798688  -0.348505  -0.010704
H  -3.919694   0.875750  -0.850453
H  -3.914472   0.994980   0.977426
C  -1.400432   0.213642  -0.020797
H  -2.803915  -1.299357  -0.907887
H  -2.746682  -1.155261   0.841693
C  -0.165702  -0.719385   0.067882
H  -1.473145   0.910718   0.869016
H  -1.419827   0.780068  -0.861637
H  -0.111292  -1.553277   1.108911
H   0.718825  -0.136013  -0.171119
H  -0.151692  -1.141994  -0.684214
