butane_opt
 OpenBabel08242015423D

 14 13  0  0  0  0  0  0  0  0999 V2000
   -3.9428    0.2498    0.0851 C   0  0  0  0  0  0  0  0  0  0  0  0
   -2.6988   -0.5833   -0.0421 C   0  0  0  0  0  0  0  0  0  0  0  0
   -4.8707   -0.4082    0.2250 H   0  0  0  0  0  0  0  0  0  0  0  0
   -3.9893    0.9617   -0.8698 H   0  0  0  0  0  0  0  0  0  0  0  0
   -3.7976    0.8829    0.9418 H   0  0  0  0  0  0  0  0  0  0  0  0
   -1.3929    0.1765   -0.0403 C   0  0  0  0  0  0  0  0  0  0  0  0
   -2.7678   -1.3142   -0.9777 H   0  0  0  0  0  0  0  0  0  0  0  0
   -2.6663   -1.1579    0.8171 H   0  0  0  0  0  0  0  0  0  0  0  0
   -0.1795   -0.7038    0.0952 C   0  0  0  0  0  0  0  0  0  0  0  0
   -1.4547    0.7952    0.7434 H   0  0  0  0  0  0  0  0  0  0  0  0
   -1.3559    0.9348   -1.0204 H   0  0  0  0  0  0  0  0  0  0  0  0
   -0.1383   -1.3161    1.0110 H   0  0  0  0  0  0  0  0  0  0  0  0
    0.7343   -0.1088    0.1623 H   0  0  0  0  0  0  0  0  0  0  0  0
   -0.1438   -1.4176   -0.7667 H   0  0  0  0  0  0  0  0  0  0  0  0
  1  3  1  0  0  0  0
  1  5  1  0  0  0  0
  2  6  1  0  0  0  0
  2  1  1  0  0  0  0
  2  8  1  0  0  0  0
  4  1  1  0  0  0  0
  6  9  1  0  0  0  0
  6 10  1  0  0  0  0
  7  2  1  0  0  0  0
  9 13  1  0  0  0  0
  9 12  1  0  0  0  0
 11  6  1  0  0  0  0
 14  9  1  0  0  0  0
M  END
$$$$
