14
butane_opt
C  -3.927192   0.245645  -0.030595
C  -2.701925  -0.601118   0.056482
H  -4.837051  -0.377018   0.032374
H  -3.913740   0.891225  -0.954785
H  -3.996047   0.948481   0.903812
C  -1.416456   0.203227   0.070740
H  -2.713876  -1.206146  -0.724191
H  -2.734910  -1.240450   0.958423
C  -0.160540  -0.703601  -0.000557
H  -1.365939   0.970700   0.940046
H  -1.334248   0.715586  -0.738621
H   0.003548  -1.456138   0.956729
H   0.671009  -0.179386  -0.287752
H  -0.304232  -1.275142  -0.791205
