14
butane_opt
C  -3.918328   0.244272  -0.012021
C  -2.691170  -0.592517   0.079054
H  -4.881135  -0.403500   0.063244
H  -3.988069   0.816760  -0.903024
H  -3.951690   0.864771   0.854503
C  -1.416532   0.207487   0.007750
H  -2.713545  -1.156595  -0.704959
H  -2.771275  -1.272428   1.038132
C  -0.169060  -0.710578   0.010347
H  -1.443086   0.945925   0.895745
H  -1.400188   0.857725  -0.895875
H  -0.208604  -1.130604   0.801993
H   0.688390  -0.193217   0.191218
H   0.006690  -1.612225  -0.953287
