butane_opt
 OpenBabel08242015423D

 14 13  0  0  0  0  0  0  0  0999 V2000
   -3.9318    0.2747    0.0455 C   0  0  0  0  0  0  0  0  0  0  0  0
   -2.6744   -0.6363   -0.0028 C   0  0  0  0  0  0  0  0  0  0  0  0
   -4.8243   -0.2882    0.0003 H   0  0  0  0  0  0  0  0  0  0  0  0
   -4.0276    0.8624   -0.8241 H   0  0  0  0  0  0  0  0  0  0  0  0
   -4.0060    1.0808    0.9949 H   0  0  0  0  0  0  0  0  0  0  0  0
   -1.4059    0.1560    0.0095 C   0  0  0  0  0  0  0  0  0  0  0  0
   -2.7116   -1.3775   -0.9365 H   0  0  0  0  0  0  0  0  0  0  0  0
   -2.6959   -1.2340    0.8274 H   0  0  0  0  0  0  0  0  0  0  0  0
   -0.1867   -0.6721    0.0616 C   0  0  0  0  0  0  0  0  0  0  0  0
   -1.4083    0.7743    0.7874 H   0  0  0  0  0  0  0  0  0  0  0  0
   -1.4298    0.8945   -0.9476 H   0  0  0  0  0  0  0  0  0  0  0  0
   -0.0568   -1.4672    1.0155 H   0  0  0  0  0  0  0  0  0  0  0  0
    0.7969   -0.0061   -0.1209 H   0  0  0  0  0  0  0  0  0  0  0  0
   -0.2821   -1.1598   -0.6809 H   0  0  0  0  0  0  0  0  0  0  0  0
  1  5  1  0  0  0  0
  2  6  1  0  0  0  0
  2  1  1  0  0  0  0
  2  8  1  0  0  0  0
  3  1  1  0  0  0  0
  4  1  1  0  0  0  0
  6  9  1  0  0  0  0
  6 10  1  0  0  0  0
  7  2  1  0  0  0  0
  9 12  1  0  0  0  0
 11  6  1  0  0  0  0
 13  9  1  0  0  0  0
 14  9  1  0  0  0  0
M  END
$$$$
