butane_opt
 OpenBabel08242015423D

 14 13  0  0  0  0  0  0  0  0999 V2000
   -3.9475    0.2530    0.0277 C   0  0  0  0  0  0  0  0  0  0  0  0
   -2.7300   -0.5911    0.0317 C   0  0  0  0  0  0  0  0  0  0  0  0
   -4.8605   -0.3421   -0.2064 H   0  0  0  0  0  0  0  0  0  0  0  0
   -3.9029    0.6402   -0.7299 H   0  0  0  0  0  0  0  0  0  0  0  0
   -4.0400    1.1452    1.0314 H   0  0  0  0  0  0  0  0  0  0  0  0
   -1.4010    0.1867   -0.0138 C   0  0  0  0  0  0  0  0  0  0  0  0
   -2.7883   -1.2168   -0.7356 H   0  0  0  0  0  0  0  0  0  0  0  0
   -2.6547   -1.3016    0.9774 H   0  0  0  0  0  0  0  0  0  0  0  0
   -0.1310   -0.7005    0.0553 C   0  0  0  0  0  0  0  0  0  0  0  0
   -1.4160    0.8338    0.7977 H   0  0  0  0  0  0  0  0  0  0  0  0
   -1.3457    0.8614   -0.9554 H   0  0  0  0  0  0  0  0  0  0  0  0
   -0.1331   -1.3975    1.0130 H   0  0  0  0  0  0  0  0  0  0  0  0
    0.7548   -0.1163   -0.0770 H   0  0  0  0  0  0  0  0  0  0  0  0
   -0.1200   -1.3692   -0.8746 H   0  0  0  0  0  0  0  0  0  0  0  0
  1  2  1  0  0  0  0
  1  5  1  0  0  0  0
  2  8  1  0  0  0  0
  3  1  1  0  0  0  0
  4  1  1  0  0  0  0
  6  2  1  0  0  0  0
  6  9  1  0  0  0  0
  6 10  1  0  0  0  0
  7  2  1  0  0  0  0
  9 12  1  0  0  0  0
 11  6  1  0  0  0  0
 13  9  1  0  0  0  0
 14  9  1  0  0  0  0
M  END
$$$$
