14
butane_opt
C  -3.953469   0.270268  -0.016144
C  -2.703399  -0.626130   0.090015
H  -4.864598  -0.325782  -0.077787
H  -3.894234   0.842463  -0.886099
H  -4.115542   0.958497   0.841202
C  -1.398552   0.182541   0.029692
H  -2.664474  -1.225781  -0.728280
H  -2.734114  -1.276435   0.999926
C  -0.149249  -0.699238  -0.000428
H  -1.337354   0.936189   0.935066
H  -1.422266   0.773583  -0.828598
H  -0.130670  -1.257297   0.863413
H   0.778288  -0.071950  -0.009594
H  -0.176211  -1.366032  -0.900392
