butane_opt
 OpenBabel08242015423D

 14 13  0  0  0  0  0  0  0  0999 V2000
   -3.9615    0.2507    0.0128 C   0  0  0  0  0  0  0  0  0  0  0  0
   -2.7061   -0.6181    0.0617 C   0  0  0  0  0  0  0  0  0  0  0  0
   -4.8371   -0.3653   -0.0051 H   0  0  0  0  0  0  0  0  0  0  0  0
   -3.9451    0.8770   -0.8710 H   0  0  0  0  0  0  0  0  0  0  0  0
   -3.9367    0.9062    0.8935 H   0  0  0  0  0  0  0  0  0  0  0  0
   -1.4033    0.2212   -0.0069 C   0  0  0  0  0  0  0  0  0  0  0  0
   -2.6799   -1.2647   -0.7288 H   0  0  0  0  0  0  0  0  0  0  0  0
   -2.6878   -1.2546    0.9945 H   0  0  0  0  0  0  0  0  0  0  0  0
   -0.1494   -0.7114    0.0118 C   0  0  0  0  0  0  0  0  0  0  0  0
   -1.3787    0.9123    0.8203 H   0  0  0  0  0  0  0  0  0  0  0  0
   -1.3938    0.8422   -0.8668 H   0  0  0  0  0  0  0  0  0  0  0  0
   -0.2337   -1.2031    0.8340 H   0  0  0  0  0  0  0  0  0  0  0  0
    0.6818   -0.1935    0.2611 H   0  0  0  0  0  0  0  0  0  0  0  0
    0.0459   -1.4521   -0.8607 H   0  0  0  0  0  0  0  0  0  0  0  0
  1  2  1  0  0  0  0
  1  5  1  0  0  0  0
  2  8  1  0  0  0  0
  3  1  1  0  0  0  0
  4  1  1  0  0  0  0
  6  9  1  0  0  0  0
  6  2  1  0  0  0  0
  6 10  1  0  0  0  0
  7  2  1  0  0  0  0
  9 13  1  0  0  0  0
  9 12  1  0  0  0  0
 11  6  1  0  0  0  0
 14  9  1  0  0  0  0
M  END
$$$$
