butane_opt
 OpenBabel08242015423D

 14 13  0  0  0  0  0  0  0  0999 V2000
   -3.9518    0.2594    0.0234 C   0  0  0  0  0  0  0  0  0  0  0  0
   -2.7110   -0.6022    0.0577 C   0  0  0  0  0  0  0  0  0  0  0  0
   -4.9054   -0.3809    0.0341 H   0  0  0  0  0  0  0  0  0  0  0  0
   -3.8450    0.9476   -0.9095 H   0  0  0  0  0  0  0  0  0  0  0  0
   -3.9222    0.8698    0.8456 H   0  0  0  0  0  0  0  0  0  0  0  0
   -1.4042    0.2027   -0.0084 C   0  0  0  0  0  0  0  0  0  0  0  0
   -2.8387   -1.3167   -0.8492 H   0  0  0  0  0  0  0  0  0  0  0  0
   -2.7013   -1.2520    0.9898 H   0  0  0  0  0  0  0  0  0  0  0  0
   -0.1453   -0.7059    0.0343 C   0  0  0  0  0  0  0  0  0  0  0  0
   -1.3768    0.8183    0.8132 H   0  0  0  0  0  0  0  0  0  0  0  0
   -1.4226    0.8678   -0.9032 H   0  0  0  0  0  0  0  0  0  0  0  0
   -0.2266   -1.1716    0.8279 H   0  0  0  0  0  0  0  0  0  0  0  0
    0.7459   -0.1347    0.2078 H   0  0  0  0  0  0  0  0  0  0  0  0
    0.0145   -1.5730   -0.9324 H   0  0  0  0  0  0  0  0  0  0  0  0
  1  3  1  0  0  0  0
  1  2  1  0  0  0  0
  1  5  1  0  0  0  0
  2  8  1  0  0  0  0
  4  1  1  0  0  0  0
  6  9  1  0  0  0  0
  6  2  1  0  0  0  0
  6 10  1  0  0  0  0
  7  2  1  0  0  0  0
  9 13  1  0  0  0  0
  9 12  1  0  0  0  0
 11  6  1  0  0  0  0
 14  9  1  0  0  0  0
M  END
$$$$
