butane_opt
 OpenBabel08242015423D

 14 13  0  0  0  0  0  0  0  0999 V2000
   -3.9602    0.2720    0.0266 C   0  0  0  0  0  0  0  0  0  0  0  0
   -2.6897   -0.6183    0.0281 C   0  0  0  0  0  0  0  0  0  0  0  0
   -4.8275   -0.3159    0.1341 H   0  0  0  0  0  0  0  0  0  0  0  0
   -3.9669    0.8781   -0.8457 H   0  0  0  0  0  0  0  0  0  0  0  0
   -3.9314    0.9898    0.9117 H   0  0  0  0  0  0  0  0  0  0  0  0
   -1.3963    0.1659   -0.0244 C   0  0  0  0  0  0  0  0  0  0  0  0
   -2.7052   -1.3137   -0.8049 H   0  0  0  0  0  0  0  0  0  0  0  0
   -2.5743   -1.3317    0.9474 H   0  0  0  0  0  0  0  0  0  0  0  0
   -0.1741   -0.6887    0.0592 C   0  0  0  0  0  0  0  0  0  0  0  0
   -1.4512    0.7982    0.8177 H   0  0  0  0  0  0  0  0  0  0  0  0
   -1.3307    0.8897   -0.9606 H   0  0  0  0  0  0  0  0  0  0  0  0
   -0.2473   -1.1060    0.8263 H   0  0  0  0  0  0  0  0  0  0  0  0
    0.8021   -0.0538    0.2012 H   0  0  0  0  0  0  0  0  0  0  0  0
   -0.1509   -1.4670   -0.8792 H   0  0  0  0  0  0  0  0  0  0  0  0
  1  2  1  0  0  0  0
  1  3  1  0  0  0  0
  1  5  1  0  0  0  0
  2  8  1  0  0  0  0
  4  1  1  0  0  0  0
  6  2  1  0  0  0  0
  6  9  1  0  0  0  0
  6 10  1  0  0  0  0
  7  2  1  0  0  0  0
  9 13  1  0  0  0  0
  9 12  1  0  0  0  0
 11  6  1  0  0  0  0
 14  9  1  0  0  0  0
M  END
$$$$
