butane_opt
 OpenBabel08242015423D

 14 13  0  0  0  0  0  0  0  0999 V2000
   -3.9825    0.2931    0.0041 C   0  0  0  0  0  0  0  0  0  0  0  0
   -2.6905   -0.6553    0.0753 C   0  0  0  0  0  0  0  0  0  0  0  0
   -4.8948   -0.2960    0.0576 H   0  0  0  0  0  0  0  0  0  0  0  0
   -3.8961    0.9697   -0.9640 H   0  0  0  0  0  0  0  0  0  0  0  0
   -4.0905    0.9074    0.7918 H   0  0  0  0  0  0  0  0  0  0  0  0
   -1.3921    0.1570    0.0172 C   0  0  0  0  0  0  0  0  0  0  0  0
   -2.6855   -1.2085   -0.6888 H   0  0  0  0  0  0  0  0  0  0  0  0
   -2.7546   -1.3251    0.9403 H   0  0  0  0  0  0  0  0  0  0  0  0
   -0.1364   -0.6689    0.0057 C   0  0  0  0  0  0  0  0  0  0  0  0
   -1.3421    0.8880    0.8959 H   0  0  0  0  0  0  0  0  0  0  0  0
   -1.3792    0.7648   -0.8604 H   0  0  0  0  0  0  0  0  0  0  0  0
   -0.2340   -1.1266    0.8221 H   0  0  0  0  0  0  0  0  0  0  0  0
    0.7533   -0.0546    0.1942 H   0  0  0  0  0  0  0  0  0  0  0  0
   -0.0955   -1.5087   -0.9871 H   0  0  0  0  0  0  0  0  0  0  0  0
  1  3  1  0  0  0  0
  1  2  1  0  0  0  0
  1  5  1  0  0  0  0
  2  8  1  0  0  0  0
  4  1  1  0  0  0  0
  6  2  1  0  0  0  0
  6 10  1  0  0  0  0
  7  2  1  0  0  0  0
  9  6  1  0  0  0  0
  9 13  1  0  0  0  0
  9 12  1  0  0  0  0
 11  6  1  0  0  0  0
 14  9  1  0  0  0  0
M  END
$$$$
