14
butane_opt
C  -3.960203   0.272045   0.026629
C  -2.689657  -0.618295   0.028105
H  -4.827528  -0.315877   0.134099
H  -3.966857   0.878071  -0.845652
H  -3.931420   0.989796   0.911659
C  -1.396326   0.165888  -0.024409
H  -2.705236  -1.313707  -0.804899
H  -2.574326  -1.331670   0.947354
C  -0.174085  -0.688723   0.059208
H  -1.451231   0.798153   0.817662
H  -1.330695   0.889661  -0.960552
H  -0.247317  -1.105960   0.826343
H   0.802136  -0.053791   0.201199
H  -0.150875  -1.467013  -0.879204
