14
butane_opt
C  -3.951812   0.259395   0.023355
C  -2.711032  -0.602195   0.057709
H  -4.905380  -0.380908   0.034127
H  -3.844960   0.947584  -0.909481
H  -3.922200   0.869786   0.845638
C  -1.404199   0.202676  -0.008448
H  -2.838748  -1.316684  -0.849156
H  -2.701347  -1.251982   0.989765
C  -0.145305  -0.705881   0.034343
H  -1.376836   0.818266   0.813207
H  -1.422613   0.867807  -0.903220
H  -0.226618  -1.171640   0.827920
H   0.745911  -0.134671   0.207825
H   0.014479  -1.573038  -0.932448
