butane_opt
 OpenBabel08242015423D

 14 13  0  0  0  0  0  0  0  0999 V2000
   -3.9280    0.2735   -0.0043 C   0  0  0  0  0  0  0  0  0  0  0  0
   -2.7038   -0.6240    0.0682 C   0  0  0  0  0  0  0  0  0  0  0  0
   -4.8303   -0.2656    0.1005 H   0  0  0  0  0  0  0  0  0  0  0  0
   -4.0113    0.9619   -0.9143 H   0  0  0  0  0  0  0  0  0  0  0  0
   -3.9127    0.9741    0.8772 H   0  0  0  0  0  0  0  0  0  0  0  0
   -1.3999    0.1553    0.0028 C   0  0  0  0  0  0  0  0  0  0  0  0
   -2.7076   -1.2379   -0.7243 H   0  0  0  0  0  0  0  0  0  0  0  0
   -2.6628   -1.3204    0.9604 H   0  0  0  0  0  0  0  0  0  0  0  0
   -0.1722   -0.6809    0.0312 C   0  0  0  0  0  0  0  0  0  0  0  0
   -1.3828    0.7976    0.8185 H   0  0  0  0  0  0  0  0  0  0  0  0
   -1.3945    0.7736   -0.8895 H   0  0  0  0  0  0  0  0  0  0  0  0
   -0.3205   -1.0821    0.7502 H   0  0  0  0  0  0  0  0  0  0  0  0
    0.7789   -0.0226    0.2224 H   0  0  0  0  0  0  0  0  0  0  0  0
   -0.1359   -1.5305   -0.9615 H   0  0  0  0  0  0  0  0  0  0  0  0
  1  2  1  0  0  0  0
  1  3  1  0  0  0  0
  1  5  1  0  0  0  0
  2  8  1  0  0  0  0
  4  1  1  0  0  0  0
  6  9  1  0  0  0  0
  6  2  1  0  0  0  0
  6 10  1  0  0  0  0
  7  2  1  0  0  0  0
  9 13  1  0  0  0  0
  9 12  1  0  0  0  0
 11  6  1  0  0  0  0
 14  9  1  0  0  0  0
M  END
$$$$
