butane_opt
 OpenBabel08242015423D

 14 13  0  0  0  0  0  0  0  0999 V2000
   -3.9105    0.2549    0.0718 C   0  0  0  0  0  0  0  0  0  0  0  0
   -2.7086   -0.5932   -0.0191 C   0  0  0  0  0  0  0  0  0  0  0  0
   -4.7844   -0.3412   -0.0981 H   0  0  0  0  0  0  0  0  0  0  0  0
   -3.9028    0.7171   -0.7528 H   0  0  0  0  0  0  0  0  0  0  0  0
   -3.9459    0.9971    1.0015 H   0  0  0  0  0  0  0  0  0  0  0  0
   -1.4320    0.1884   -0.0212 C   0  0  0  0  0  0  0  0  0  0  0  0
   -2.7446   -1.3442   -0.9192 H   0  0  0  0  0  0  0  0  0  0  0  0
   -2.7126   -1.1875    0.8454 H   0  0  0  0  0  0  0  0  0  0  0  0
   -0.1618   -0.7004    0.0820 C   0  0  0  0  0  0  0  0  0  0  0  0
   -1.4441    0.8381    0.7930 H   0  0  0  0  0  0  0  0  0  0  0  0
   -1.3131    0.9098   -0.9522 H   0  0  0  0  0  0  0  0  0  0  0  0
   -0.1104   -1.5240    1.0637 H   0  0  0  0  0  0  0  0  0  0  0  0
    0.6989   -0.1389   -0.2085 H   0  0  0  0  0  0  0  0  0  0  0  0
   -0.2051   -1.1963   -0.6725 H   0  0  0  0  0  0  0  0  0  0  0  0
  1  5  1  0  0  0  0
  2  1  1  0  0  0  0
  2  8  1  0  0  0  0
  3  1  1  0  0  0  0
  4  1  1  0  0  0  0
  6  2  1  0  0  0  0
  6  9  1  0  0  0  0
  6 10  1  0  0  0  0
  7  2  1  0  0  0  0
  9 12  1  0  0  0  0
 11  6  1  0  0  0  0
 13  9  1  0  0  0  0
 14  9  1  0  0  0  0
M  END
$$$$
