14
butane_opt
C  -3.941031   0.285866   0.074596
C  -2.683180  -0.626128  -0.013662
H  -4.866550  -0.296563   0.130450
H  -4.051394   0.801593  -0.789380
H  -3.852327   0.989732   0.985846
C  -1.407596   0.147681  -0.060945
H  -2.718816  -1.322283  -0.890715
H  -2.613728  -1.237603   0.840783
C  -0.185992  -0.678625   0.091518
H  -1.371878   0.739630   0.729059
H  -1.271182   0.992979  -1.075832
H  -0.338102  -1.192535   0.909302
H   0.785339  -0.063546   0.303892
H  -0.111008  -1.433522  -0.801918
