butane_opt
 OpenBabel08242015423D

 14 13  0  0  0  0  0  0  0  0999 V2000
   -3.9525    0.2913    0.0009 C   0  0  0  0  0  0  0  0  0  0  0  0
   -2.6738   -0.6410    0.0568 C   0  0  0  0  0  0  0  0  0  0  0  0
   -4.8965   -0.3645    0.1772 H   0  0  0  0  0  0  0  0  0  0  0  0
   -4.0096    0.9498   -0.9178 H   0  0  0  0  0  0  0  0  0  0  0  0
   -3.9911    0.8818    0.8537 H   0  0  0  0  0  0  0  0  0  0  0  0
   -1.3934    0.1599    0.0126 C   0  0  0  0  0  0  0  0  0  0  0  0
   -2.6548   -1.2936   -0.7712 H   0  0  0  0  0  0  0  0  0  0  0  0
   -2.7688   -1.2231    0.9355 H   0  0  0  0  0  0  0  0  0  0  0  0
   -0.1799   -0.6831    0.0317 C   0  0  0  0  0  0  0  0  0  0  0  0
   -1.3423    0.8607    0.8205 H   0  0  0  0  0  0  0  0  0  0  0  0
   -1.3646    0.8683   -0.9355 H   0  0  0  0  0  0  0  0  0  0  0  0
   -0.2228   -1.1148    0.8379 H   0  0  0  0  0  0  0  0  0  0  0  0
    0.7876   -0.0500    0.1644 H   0  0  0  0  0  0  0  0  0  0  0  0
   -0.1618   -1.5234   -0.9579 H   0  0  0  0  0  0  0  0  0  0  0  0
  1  2  1  0  0  0  0
  1  3  1  0  0  0  0
  1  5  1  0  0  0  0
  2  8  1  0  0  0  0
  4  1  1  0  0  0  0
  6  9  1  0  0  0  0
  6  2  1  0  0  0  0
  6 10  1  0  0  0  0
  7  2  1  0  0  0  0
  9 13  1  0  0  0  0
  9 12  1  0  0  0  0
 11  6  1  0  0  0  0
 14  9  1  0  0  0  0
M  END
$$$$
