14
butane_opt
C  -3.952491   0.291342   0.000926
C  -2.673763  -0.641009   0.056815
H  -4.896509  -0.364535   0.177206
H  -4.009601   0.949806  -0.917754
H  -3.991114   0.881786   0.853664
C  -1.393429   0.159891   0.012584
H  -2.654817  -1.293606  -0.771217
H  -2.768806  -1.223101   0.935512
C  -0.179949  -0.683091   0.031690
H  -1.342276   0.860718   0.820457
H  -1.364585   0.868350  -0.935485
H  -0.222820  -1.114795   0.837912
H   0.787643  -0.050034   0.164396
H  -0.161793  -1.523361  -0.957949
