14
butane_opt
C  -3.910491   0.254914   0.071832
C  -2.708586  -0.593178  -0.019082
H  -4.784363  -0.341169  -0.098064
H  -3.902795   0.717119  -0.752766
H  -3.945854   0.997080   1.001480
C  -1.431991   0.188408  -0.021247
H  -2.744613  -1.344210  -0.919228
H  -2.712585  -1.187490   0.845391
C  -0.161760  -0.700384   0.081964
H  -1.444074   0.838061   0.793000
H  -1.313116   0.909811  -0.952243
H  -0.110421  -1.523983   1.063720
H   0.698852  -0.138861  -0.208524
H  -0.205105  -1.196260  -0.672550
