butane_opt
 OpenBabel08242015423D

 14 13  0  0  0  0  0  0  0  0999 V2000
   -3.9258    0.2743   -0.0209 C   0  0  0  0  0  0  0  0  0  0  0  0
   -2.6927   -0.6317    0.0912 C   0  0  0  0  0  0  0  0  0  0  0  0
   -4.7516   -0.2139   -0.1204 H   0  0  0  0  0  0  0  0  0  0  0  0
   -3.9019    0.7696   -0.8046 H   0  0  0  0  0  0  0  0  0  0  0  0
   -4.0667    1.0135    0.8744 H   0  0  0  0  0  0  0  0  0  0  0  0
   -1.3965    0.1669    0.0225 C   0  0  0  0  0  0  0  0  0  0  0  0
   -2.7106   -1.2435   -0.7032 H   0  0  0  0  0  0  0  0  0  0  0  0
   -2.6628   -1.3005    1.0232 H   0  0  0  0  0  0  0  0  0  0  0  0
   -0.1852   -0.6801    0.0085 C   0  0  0  0  0  0  0  0  0  0  0  0
   -1.4174    0.8016    0.8323 H   0  0  0  0  0  0  0  0  0  0  0  0
   -1.3897    0.8540   -0.8473 H   0  0  0  0  0  0  0  0  0  0  0  0
   -0.1697   -1.1994    0.8384 H   0  0  0  0  0  0  0  0  0  0  0  0
    0.7444   -0.0580    0.0779 H   0  0  0  0  0  0  0  0  0  0  0  0
   -0.2997   -1.4526   -0.9500 H   0  0  0  0  0  0  0  0  0  0  0  0
  1  2  1  0  0  0  0
  1  5  1  0  0  0  0
  2  8  1  0  0  0  0
  3  1  1  0  0  0  0
  4  1  1  0  0  0  0
  6  2  1  0  0  0  0
  6 10  1  0  0  0  0
  7  2  1  0  0  0  0
  9  6  1  0  0  0  0
  9 13  1  0  0  0  0
  9 12  1  0  0  0  0
 11  6  1  0  0  0  0
 14  9  1  0  0  0  0
M  END
$$$$
