14
butane_opt
C  -3.925769   0.274342  -0.020941
C  -2.692743  -0.631744   0.091230
H  -4.751583  -0.213856  -0.120418
H  -3.901874   0.769583  -0.804650
H  -4.066650   1.013548   0.874398
C  -1.396477   0.166918   0.022488
H  -2.710609  -1.243451  -0.703179
H  -2.662769  -1.300509   1.023186
C  -0.185154  -0.680134   0.008493
H  -1.417397   0.801569   0.832335
H  -1.389663   0.853960  -0.847304
H  -0.169689  -1.199376   0.838432
H   0.744411  -0.058014   0.077882
H  -0.299710  -1.452579  -0.949960
