14
butane_opt
C  -3.928918   0.266597  -0.039262
C  -2.667244  -0.618157   0.056997
H  -4.845918  -0.308349   0.275416
H  -4.064184   1.033211  -1.051941
H  -3.901023   0.756140   0.727384
C  -1.410478   0.177238   0.079603
H  -2.641593  -1.219996  -0.722583
H  -2.769384  -1.343172   1.005264
C  -0.187743  -0.678872  -0.009117
H  -1.310562   0.908935   1.014168
H  -1.491702   0.715498  -0.731716
H  -0.137520  -1.220384   0.793016
H   0.695131  -0.152817  -0.016542
H  -0.217972  -1.392604  -0.925087
