14
butane_opt
C  -3.954671   0.266412   0.027223
C  -2.695731  -0.623140   0.038873
H  -4.819044  -0.283874  -0.047738
H  -3.981000   0.782817  -0.795079
H  -4.059440   1.044849   0.949592
C  -1.403188   0.185501  -0.017941
H  -2.699145  -1.327922  -0.825857
H  -2.742068  -1.285866   0.954091
C  -0.155571  -0.689391   0.043503
H  -1.367664   0.856228   0.851510
H  -1.385286   0.806214  -0.902935
H  -0.144065  -1.341777   0.938956
H   0.788181  -0.082356   0.026674
H  -0.107407  -1.302079  -0.788705
