butane_opt
 OpenBabel08242015423D

 14 13  0  0  0  0  0  0  0  0999 V2000
   -3.9344    0.2584   -0.0420 C   0  0  0  0  0  0  0  0  0  0  0  0
   -2.7275   -0.6107    0.1068 C   0  0  0  0  0  0  0  0  0  0  0  0
   -4.8943   -0.3845    0.0026 H   0  0  0  0  0  0  0  0  0  0  0  0
   -3.9158    0.8387   -0.9135 H   0  0  0  0  0  0  0  0  0  0  0  0
   -4.0123    0.9135    0.8099 H   0  0  0  0  0  0  0  0  0  0  0  0
   -1.4079    0.2172    0.0563 C   0  0  0  0  0  0  0  0  0  0  0  0
   -2.6611   -1.1682   -0.6698 H   0  0  0  0  0  0  0  0  0  0  0  0
   -2.8196   -1.3657    1.0772 H   0  0  0  0  0  0  0  0  0  0  0  0
   -0.1446   -0.7186   -0.0243 C   0  0  0  0  0  0  0  0  0  0  0  0
   -1.3468    0.9372    0.9589 H   0  0  0  0  0  0  0  0  0  0  0  0
   -1.3611    0.8750   -0.8795 H   0  0  0  0  0  0  0  0  0  0  0  0
   -0.1318   -1.1771    0.7457 H   0  0  0  0  0  0  0  0  0  0  0  0
    0.7438   -0.1878    0.1390 H   0  0  0  0  0  0  0  0  0  0  0  0
   -0.0394   -1.5272   -1.0017 H   0  0  0  0  0  0  0  0  0  0  0  0
  1  3  1  0  0  0  0
  1  2  1  0  0  0  0
  1  5  1  0  0  0  0
  2  8  1  0  0  0  0
  4  1  1  0  0  0  0
  6  2  1  0  0  0  0
  6 10  1  0  0  0  0
  7  2  1  0  0  0  0
  9  6  1  0  0  0  0
  9 13  1  0  0  0  0
  9 12  1  0  0  0  0
 11  6  1  0  0  0  0
 14  9  1  0  0  0  0
M  END
$$$$
