butane_opt
 OpenBabel08242015423D

 14 13  0  0  0  0  0  0  0  0999 V2000
   -3.9364    0.2485   -0.0033 C   0  0  0  0  0  0  0  0  0  0  0  0
   -2.6919   -0.5886    0.0720 C   0  0  0  0  0  0  0  0  0  0  0  0
   -4.9056   -0.3832   -0.0326 H   0  0  0  0  0  0  0  0  0  0  0  0
   -3.8626    0.8263   -0.9267 H   0  0  0  0  0  0  0  0  0  0  0  0
   -4.0144    0.9603    0.8755 H   0  0  0  0  0  0  0  0  0  0  0  0
   -1.4128    0.1881    0.0330 C   0  0  0  0  0  0  0  0  0  0  0  0
   -2.7007   -1.2808   -0.7710 H   0  0  0  0  0  0  0  0  0  0  0  0
   -2.7420   -1.2237    0.9815 H   0  0  0  0  0  0  0  0  0  0  0  0
   -0.1587   -0.7046    0.0027 C   0  0  0  0  0  0  0  0  0  0  0  0
   -1.3946    0.8864    0.8787 H   0  0  0  0  0  0  0  0  0  0  0  0
   -1.4178    0.8318   -0.8551 H   0  0  0  0  0  0  0  0  0  0  0  0
   -0.1434   -1.3298    0.9104 H   0  0  0  0  0  0  0  0  0  0  0  0
    0.7171   -0.1231    0.0017 H   0  0  0  0  0  0  0  0  0  0  0  0
   -0.1462   -1.3724   -0.8676 H   0  0  0  0  0  0  0  0  0  0  0  0
  1  2  1  0  0  0  0
  1  5  1  0  0  0  0
  2  8  1  0  0  0  0
  3  1  1  0  0  0  0
  4  1  1  0  0  0  0
  6  2  1  0  0  0  0
  6 10  1  0  0  0  0
  7  2  1  0  0  0  0
  9  6  1  0  0  0  0
  9 12  1  0  0  0  0
 11  6  1  0  0  0  0
 13  9  1  0  0  0  0
 14  9  1  0  0  0  0
M  END
$$$$
