14
butane_opt
C  -3.947599   0.271760   0.055089
C  -2.712745  -0.617308  -0.023929
H  -4.911177  -0.339587   0.094226
H  -4.003355   0.845324  -0.807404
H  -3.822071   1.075216   1.057502
C  -1.395303   0.170550  -0.029191
H  -2.731103  -1.348021  -0.940772
H  -2.610550  -1.227814   0.815604
C  -0.166875  -0.686957   0.077583
H  -1.394481   0.835576   0.851760
H  -1.351562   0.790178  -0.944966
H  -0.107587  -1.507654   1.102962
H   0.775811  -0.091267  -0.075068
H  -0.202722  -1.145798  -0.636593
