butane_opt
 OpenBabel08242015423D

 14 13  0  0  0  0  0  0  0  0999 V2000
   -3.9328    0.2494   -0.0037 C   0  0  0  0  0  0  0  0  0  0  0  0
   -2.7023   -0.6024    0.0259 C   0  0  0  0  0  0  0  0  0  0  0  0
   -4.8683   -0.4011    0.3406 H   0  0  0  0  0  0  0  0  0  0  0  0
   -4.0948    1.0559   -1.0047 H   0  0  0  0  0  0  0  0  0  0  0  0
   -3.7783    0.7123    0.7570 H   0  0  0  0  0  0  0  0  0  0  0  0
   -1.4133    0.2050    0.0470 C   0  0  0  0  0  0  0  0  0  0  0  0
   -2.6797   -1.2325   -0.8321 H   0  0  0  0  0  0  0  0  0  0  0  0
   -2.7177   -1.2287    0.9180 H   0  0  0  0  0  0  0  0  0  0  0  0
   -0.1653   -0.7058    0.0156 C   0  0  0  0  0  0  0  0  0  0  0  0
   -1.3922    0.9119    0.9156 H   0  0  0  0  0  0  0  0  0  0  0  0
   -1.4426    0.7748   -0.7999 H   0  0  0  0  0  0  0  0  0  0  0  0
   -0.0528   -1.2657    0.8365 H   0  0  0  0  0  0  0  0  0  0  0  0
    0.6498   -0.1690    0.1006 H   0  0  0  0  0  0  0  0  0  0  0  0
   -0.0734   -1.3888   -0.8262 H   0  0  0  0  0  0  0  0  0  0  0  0
  1  2  1  0  0  0  0
  1  3  1  0  0  0  0
  1  5  1  0  0  0  0
  2  6  1  0  0  0  0
  2  8  1  0  0  0  0
  4  1  1  0  0  0  0
  6 10  1  0  0  0  0
  7  2  1  0  0  0  0
  9  6  1  0  0  0  0
  9 13  1  0  0  0  0
  9 12  1  0  0  0  0
 11  6  1  0  0  0  0
 14  9  1  0  0  0  0
M  END
$$$$
