butane_opt
 OpenBabel08242015423D

 14 13  0  0  0  0  0  0  0  0999 V2000
   -3.9272    0.2617    0.0705 C   0  0  0  0  0  0  0  0  0  0  0  0
   -2.7043   -0.6126    0.0024 C   0  0  0  0  0  0  0  0  0  0  0  0
   -4.8824   -0.3519    0.0838 H   0  0  0  0  0  0  0  0  0  0  0  0
   -3.9011    0.7966   -0.7443 H   0  0  0  0  0  0  0  0  0  0  0  0
   -3.9244    1.0249    0.9902 H   0  0  0  0  0  0  0  0  0  0  0  0
   -1.4167    0.1864   -0.0830 C   0  0  0  0  0  0  0  0  0  0  0  0
   -2.6808   -1.3248   -0.8560 H   0  0  0  0  0  0  0  0  0  0  0  0
   -2.6272   -1.2562    0.8766 H   0  0  0  0  0  0  0  0  0  0  0  0
   -0.1781   -0.6948    0.0806 C   0  0  0  0  0  0  0  0  0  0  0  0
   -1.3982    0.8652    0.7737 H   0  0  0  0  0  0  0  0  0  0  0  0
   -1.3775    0.8945   -0.9864 H   0  0  0  0  0  0  0  0  0  0  0  0
   -0.2995   -1.2756    0.9666 H   0  0  0  0  0  0  0  0  0  0  0  0
    0.7470   -0.0823    0.2759 H   0  0  0  0  0  0  0  0  0  0  0  0
    0.0338   -1.4615   -0.7779 H   0  0  0  0  0  0  0  0  0  0  0  0
  1  3  1  0  0  0  0
  1  5  1  0  0  0  0
  2  1  1  0  0  0  0
  2  8  1  0  0  0  0
  4  1  1  0  0  0  0
  6  2  1  0  0  0  0
  6  9  1  0  0  0  0
  6 10  1  0  0  0  0
  7  2  1  0  0  0  0
  9 13  1  0  0  0  0
  9 12  1  0  0  0  0
 11  6  1  0  0  0  0
 14  9  1  0  0  0  0
M  END
$$$$
