14
butane_opt
C  -3.929164   0.272665  -0.031762
C  -2.674272  -0.639922   0.067695
H  -4.815803  -0.268610  -0.034979
H  -4.017098   0.986364  -0.937109
H  -4.056215   0.934993   0.793514
C  -1.418321   0.160900   0.082732
H  -2.592182  -1.279622  -0.759149
H  -2.769143  -1.319493   1.052609
C  -0.181098  -0.673379  -0.012023
H  -1.323246   0.938581   1.004722
H  -1.392334   0.716650  -0.751340
H  -0.054863  -1.326845   0.886109
H   0.751119  -0.055697  -0.282928
H  -0.312977  -1.236618  -0.814720
