butane_opt
 OpenBabel08242015423D

 14 13  0  0  0  0  0  0  0  0999 V2000
   -3.9163    0.2470    0.0758 C   0  0  0  0  0  0  0  0  0  0  0  0
   -2.7179   -0.5727   -0.0251 C   0  0  0  0  0  0  0  0  0  0  0  0
   -4.8728   -0.4066    0.1887 H   0  0  0  0  0  0  0  0  0  0  0  0
   -3.9695    0.9480   -0.8644 H   0  0  0  0  0  0  0  0  0  0  0  0
   -3.8841    0.8579    0.9383 H   0  0  0  0  0  0  0  0  0  0  0  0
   -1.4234    0.1918   -0.0357 C   0  0  0  0  0  0  0  0  0  0  0  0
   -2.8555   -1.3972   -0.9620 H   0  0  0  0  0  0  0  0  0  0  0  0
   -2.6594   -1.1500    0.8026 H   0  0  0  0  0  0  0  0  0  0  0  0
   -0.1451   -0.7071    0.0847 C   0  0  0  0  0  0  0  0  0  0  0  0
   -1.4434    0.7800    0.7788 H   0  0  0  0  0  0  0  0  0  0  0  0
   -1.3483    0.8774   -0.9768 H   0  0  0  0  0  0  0  0  0  0  0  0
   -0.2472   -1.3750    1.0130 H   0  0  0  0  0  0  0  0  0  0  0  0
    0.7412   -0.1265    0.0768 H   0  0  0  0  0  0  0  0  0  0  0  0
   -0.0433   -1.3838   -0.7641 H   0  0  0  0  0  0  0  0  0  0  0  0
  1  3  1  0  0  0  0
  1  5  1  0  0  0  0
  2  1  1  0  0  0  0
  2  8  1  0  0  0  0
  4  1  1  0  0  0  0
  6  2  1  0  0  0  0
  6  9  1  0  0  0  0
  6 10  1  0  0  0  0
  7  2  1  0  0  0  0
  9 12  1  0  0  0  0
 11  6  1  0  0  0  0
 13  9  1  0  0  0  0
 14  9  1  0  0  0  0
M  END
$$$$
