butane_opt
 OpenBabel08242015423D

 14 13  0  0  0  0  0  0  0  0999 V2000
   -3.9667    0.2649   -0.0175 C   0  0  0  0  0  0  0  0  0  0  0  0
   -2.7017   -0.6260    0.0766 C   0  0  0  0  0  0  0  0  0  0  0  0
   -4.8717   -0.3610   -0.0537 H   0  0  0  0  0  0  0  0  0  0  0  0
   -3.9223    0.8501   -0.9148 H   0  0  0  0  0  0  0  0  0  0  0  0
   -4.1101    0.9043    0.8398 H   0  0  0  0  0  0  0  0  0  0  0  0
   -1.3851    0.2065    0.0484 C   0  0  0  0  0  0  0  0  0  0  0  0
   -2.6920   -1.2712   -0.7303 H   0  0  0  0  0  0  0  0  0  0  0  0
   -2.6949   -1.2505    0.9166 H   0  0  0  0  0  0  0  0  0  0  0  0
   -0.1527   -0.7010   -0.0036 C   0  0  0  0  0  0  0  0  0  0  0  0
   -1.4080    0.9908    0.9871 H   0  0  0  0  0  0  0  0  0  0  0  0
   -1.3882    0.7594   -0.7833 H   0  0  0  0  0  0  0  0  0  0  0  0
   -0.0029   -1.3943    0.9342 H   0  0  0  0  0  0  0  0  0  0  0  0
    0.7121   -0.1454   -0.2100 H   0  0  0  0  0  0  0  0  0  0  0  0
   -0.1662   -1.2880   -0.7920 H   0  0  0  0  0  0  0  0  0  0  0  0
  1  2  1  0  0  0  0
  1  5  1  0  0  0  0
  2  8  1  0  0  0  0
  3  1  1  0  0  0  0
  4  1  1  0  0  0  0
  6  2  1  0  0  0  0
  6 10  1  0  0  0  0
  7  2  1  0  0  0  0
  9  6  1  0  0  0  0
  9 12  1  0  0  0  0
 11  6  1  0  0  0  0
 13  9  1  0  0  0  0
 14  9  1  0  0  0  0
M  END
$$$$
