14
butane_opt
C  -3.932770   0.249405  -0.003714
C  -2.702260  -0.602431   0.025945
H  -4.868297  -0.401090   0.340633
H  -4.094752   1.055935  -1.004701
H  -3.778337   0.712343   0.757019
C  -1.413297   0.205026   0.047019
H  -2.679652  -1.232455  -0.832054
H  -2.717672  -1.228734   0.917972
C  -0.165267  -0.705849   0.015579
H  -1.392162   0.911937   0.915644
H  -1.442643   0.774848  -0.799875
H  -0.052759  -1.265661   0.836518
H   0.649795  -0.169025   0.100550
H  -0.073422  -1.388797  -0.826237
