butane_opt
 OpenBabel08242015423D

 14 13  0  0  0  0  0  0  0  0999 V2000
   -3.9345    0.2781    0.0623 C   0  0  0  0  0  0  0  0  0  0  0  0
   -2.6801   -0.6157    0.0084 C   0  0  0  0  0  0  0  0  0  0  0  0
   -4.8425   -0.3081    0.1036 H   0  0  0  0  0  0  0  0  0  0  0  0
   -4.0698    0.9039   -0.8143 H   0  0  0  0  0  0  0  0  0  0  0  0
   -3.9176    0.8326    0.8632 H   0  0  0  0  0  0  0  0  0  0  0  0
   -1.4083    0.1674   -0.0491 C   0  0  0  0  0  0  0  0  0  0  0  0
   -2.7438   -1.3747   -0.8725 H   0  0  0  0  0  0  0  0  0  0  0  0
   -2.6794   -1.2276    0.8641 H   0  0  0  0  0  0  0  0  0  0  0  0
   -0.1724   -0.6839    0.0852 C   0  0  0  0  0  0  0  0  0  0  0  0
   -1.4770    0.8165    0.7782 H   0  0  0  0  0  0  0  0  0  0  0  0
   -1.3406    0.8693   -0.9878 H   0  0  0  0  0  0  0  0  0  0  0  0
   -0.2662   -1.1940    0.8648 H   0  0  0  0  0  0  0  0  0  0  0  0
    0.8102   -0.0418    0.1879 H   0  0  0  0  0  0  0  0  0  0  0  0
   -0.1573   -1.4893   -0.8534 H   0  0  0  0  0  0  0  0  0  0  0  0
  1  3  1  0  0  0  0
  1  5  1  0  0  0  0
  2  1  1  0  0  0  0
  2  8  1  0  0  0  0
  4  1  1  0  0  0  0
  6  2  1  0  0  0  0
  6  9  1  0  0  0  0
  6 10  1  0  0  0  0
  7  2  1  0  0  0  0
  9 13  1  0  0  0  0
  9 12  1  0  0  0  0
 11  6  1  0  0  0  0
 14  9  1  0  0  0  0
M  END
$$$$
