butane_opt
 OpenBabel08242015423D

 14 13  0  0  0  0  0  0  0  0999 V2000
   -3.9248    0.2522    0.0577 C   0  0  0  0  0  0  0  0  0  0  0  0
   -2.7101   -0.5929   -0.0010 C   0  0  0  0  0  0  0  0  0  0  0  0
   -4.8976   -0.3624    0.1739 H   0  0  0  0  0  0  0  0  0  0  0  0
   -4.0591    0.9652   -0.8630 H   0  0  0  0  0  0  0  0  0  0  0  0
   -3.8475    0.8347    0.8646 H   0  0  0  0  0  0  0  0  0  0  0  0
   -1.4061    0.1947   -0.0230 C   0  0  0  0  0  0  0  0  0  0  0  0
   -2.7549   -1.4256   -0.9577 H   0  0  0  0  0  0  0  0  0  0  0  0
   -2.6440   -1.0683    0.8011 H   0  0  0  0  0  0  0  0  0  0  0  0
   -0.1673   -0.7162    0.0655 C   0  0  0  0  0  0  0  0  0  0  0  0
   -1.4589    0.8550    0.8392 H   0  0  0  0  0  0  0  0  0  0  0  0
   -1.3508    0.8461   -0.9567 H   0  0  0  0  0  0  0  0  0  0  0  0
   -0.2025   -1.4094    1.0564 H   0  0  0  0  0  0  0  0  0  0  0  0
    0.8343   -0.0500    0.0506 H   0  0  0  0  0  0  0  0  0  0  0  0
   -0.1370   -1.3120   -0.7692 H   0  0  0  0  0  0  0  0  0  0  0  0
  1  3  1  0  0  0  0
  1  5  1  0  0  0  0
  2  1  1  0  0  0  0
  2  8  1  0  0  0  0
  4  1  1  0  0  0  0
  6  2  1  0  0  0  0
  6  9  1  0  0  0  0
  6 10  1  0  0  0  0
  7  2  1  0  0  0  0
  9 12  1  0  0  0  0
 11  6  1  0  0  0  0
 13  9  1  0  0  0  0
 14  9  1  0  0  0  0
M  END
$$$$
