14
butane_opt
C  -3.934504   0.278116   0.062287
C  -2.680122  -0.615741   0.008377
H  -4.842473  -0.308090   0.103587
H  -4.069837   0.903871  -0.814307
H  -3.917559   0.832576   0.863160
C  -1.408291   0.167408  -0.049139
H  -2.743839  -1.374703  -0.872540
H  -2.679385  -1.227594   0.864141
C  -0.172416  -0.683936   0.085192
H  -1.476977   0.816524   0.778162
H  -1.340574   0.869335  -0.987803
H  -0.266169  -1.194031   0.864782
H   0.810165  -0.041813   0.187934
H  -0.157338  -1.489293  -0.853388
