butane_opt
 OpenBabel08242015423D

 14 13  0  0  0  0  0  0  0  0999 V2000
   -3.9405    0.2756    0.0662 C   0  0  0  0  0  0  0  0  0  0  0  0
   -2.6769   -0.6209   -0.0087 C   0  0  0  0  0  0  0  0  0  0  0  0
   -4.8930   -0.3420   -0.0573 H   0  0  0  0  0  0  0  0  0  0  0  0
   -3.8975    0.8064   -0.7771 H   0  0  0  0  0  0  0  0  0  0  0  0
   -3.9646    1.0596    0.9277 H   0  0  0  0  0  0  0  0  0  0  0  0
   -1.4102    0.1550   -0.0075 C   0  0  0  0  0  0  0  0  0  0  0  0
   -2.6833   -1.3977   -0.9157 H   0  0  0  0  0  0  0  0  0  0  0  0
   -2.7161   -1.1249    0.8177 H   0  0  0  0  0  0  0  0  0  0  0  0
   -0.1700   -0.6751    0.0634 C   0  0  0  0  0  0  0  0  0  0  0  0
   -1.4076    0.7648    0.8197 H   0  0  0  0  0  0  0  0  0  0  0  0
   -1.3845    0.8210   -0.9609 H   0  0  0  0  0  0  0  0  0  0  0  0
   -0.1403   -1.4821    1.0775 H   0  0  0  0  0  0  0  0  0  0  0  0
    0.6945   -0.1103   -0.1722 H   0  0  0  0  0  0  0  0  0  0  0  0
   -0.2592   -1.0827   -0.6406 H   0  0  0  0  0  0  0  0  0  0  0  0
  1  5  1  0  0  0  0
  2  6  1  0  0  0  0
  2  1  1  0  0  0  0
  2  8  1  0  0  0  0
  3  1  1  0  0  0  0
  4  1  1  0  0  0  0
  6  9  1  0  0  0  0
  6 10  1  0  0  0  0
  7  2  1  0  0  0  0
  9 12  1  0  0  0  0
 11  6  1  0  0  0  0
 13  9  1  0  0  0  0
 14  9  1  0  0  0  0
M  END
$$$$
