butane_opt
 OpenBabel08242015423D

 14 13  0  0  0  0  0  0  0  0999 V2000
   -3.9096    0.2527   -0.0251 C   0  0  0  0  0  0  0  0  0  0  0  0
   -2.7108   -0.5956    0.0652 C   0  0  0  0  0  0  0  0  0  0  0  0
   -4.8391   -0.3935   -0.0290 H   0  0  0  0  0  0  0  0  0  0  0  0
   -3.8866    0.8516   -0.9372 H   0  0  0  0  0  0  0  0  0  0  0  0
   -3.9024    0.9589    0.8801 H   0  0  0  0  0  0  0  0  0  0  0  0
   -1.4119    0.2110    0.0703 C   0  0  0  0  0  0  0  0  0  0  0  0
   -2.6988   -1.2729   -0.7947 H   0  0  0  0  0  0  0  0  0  0  0  0
   -2.8091   -1.2553    0.9650 H   0  0  0  0  0  0  0  0  0  0  0  0
   -0.1695   -0.7146    0.0041 C   0  0  0  0  0  0  0  0  0  0  0  0
   -1.3673    0.8750    0.9210 H   0  0  0  0  0  0  0  0  0  0  0  0
   -1.5541    0.7714   -0.7865 H   0  0  0  0  0  0  0  0  0  0  0  0
   -0.0506   -1.4314    0.9464 H   0  0  0  0  0  0  0  0  0  0  0  0
    0.7469   -0.0852   -0.2866 H   0  0  0  0  0  0  0  0  0  0  0  0
   -0.2417   -1.3170   -0.7994 H   0  0  0  0  0  0  0  0  0  0  0  0
  1  2  1  0  0  0  0
  1  5  1  0  0  0  0
  2  6  1  0  0  0  0
  2  8  1  0  0  0  0
  3  1  1  0  0  0  0
  4  1  1  0  0  0  0
  6 10  1  0  0  0  0
  7  2  1  0  0  0  0
  9  6  1  0  0  0  0
  9 12  1  0  0  0  0
 11  6  1  0  0  0  0
 13  9  1  0  0  0  0
 14  9  1  0  0  0  0
M  END
$$$$
