butane_opt
 OpenBabel08242015423D

 14 13  0  0  0  0  0  0  0  0999 V2000
   -3.9595    0.2906   -0.0091 C   0  0  0  0  0  0  0  0  0  0  0  0
   -2.7167   -0.6514    0.0625 C   0  0  0  0  0  0  0  0  0  0  0  0
   -4.8033   -0.2645    0.0324 H   0  0  0  0  0  0  0  0  0  0  0  0
   -4.0669    0.9444   -0.8868 H   0  0  0  0  0  0  0  0  0  0  0  0
   -3.9522    0.9051    0.8088 H   0  0  0  0  0  0  0  0  0  0  0  0
   -1.3858    0.1784    0.0349 C   0  0  0  0  0  0  0  0  0  0  0  0
   -2.6052   -1.2657   -0.7215 H   0  0  0  0  0  0  0  0  0  0  0  0
   -2.7197   -1.3597    1.0090 H   0  0  0  0  0  0  0  0  0  0  0  0
   -0.1540   -0.6719    0.0008 C   0  0  0  0  0  0  0  0  0  0  0  0
   -1.3580    0.8040    0.8937 H   0  0  0  0  0  0  0  0  0  0  0  0
   -1.3240    0.7775   -0.8259 H   0  0  0  0  0  0  0  0  0  0  0  0
   -0.2082   -1.1803    0.8342 H   0  0  0  0  0  0  0  0  0  0  0  0
    0.7409   -0.1221    0.1046 H   0  0  0  0  0  0  0  0  0  0  0  0
   -0.1404   -1.4475   -0.9021 H   0  0  0  0  0  0  0  0  0  0  0  0
  1  3  1  0  0  0  0
  1  2  1  0  0  0  0
  1  5  1  0  0  0  0
  2  8  1  0  0  0  0
  4  1  1  0  0  0  0
  6  2  1  0  0  0  0
  6 10  1  0  0  0  0
  7  2  1  0  0  0  0
  9  6  1  0  0  0  0
  9 13  1  0  0  0  0
  9 12  1  0  0  0  0
 11  6  1  0  0  0  0
 14  9  1  0  0  0  0
M  END
$$$$
