butane_opt
 OpenBabel08242015423D

 14 13  0  0  0  0  0  0  0  0999 V2000
   -3.9354    0.2587    0.0058 C   0  0  0  0  0  0  0  0  0  0  0  0
   -2.6893   -0.6129    0.0479 C   0  0  0  0  0  0  0  0  0  0  0  0
   -4.8744   -0.3830    0.0446 H   0  0  0  0  0  0  0  0  0  0  0  0
   -3.9501    0.9480   -0.9253 H   0  0  0  0  0  0  0  0  0  0  0  0
   -3.9211    0.8815    0.8328 H   0  0  0  0  0  0  0  0  0  0  0  0
   -1.4058    0.1966    0.0324 C   0  0  0  0  0  0  0  0  0  0  0  0
   -2.6973   -1.2904   -0.7981 H   0  0  0  0  0  0  0  0  0  0  0  0
   -2.7172   -1.2535    0.9697 H   0  0  0  0  0  0  0  0  0  0  0  0
   -0.1793   -0.7013    0.0185 C   0  0  0  0  0  0  0  0  0  0  0  0
   -1.4417    0.8861    0.8893 H   0  0  0  0  0  0  0  0  0  0  0  0
   -1.3948    0.8408   -0.8630 H   0  0  0  0  0  0  0  0  0  0  0  0
   -0.0822   -1.2831    0.8653 H   0  0  0  0  0  0  0  0  0  0  0  0
    0.7327   -0.1229    0.0130 H   0  0  0  0  0  0  0  0  0  0  0  0
   -0.1559   -1.3899   -0.8571 H   0  0  0  0  0  0  0  0  0  0  0  0
  1  3  1  0  0  0  0
  1  2  1  0  0  0  0
  1  5  1  0  0  0  0
  2  8  1  0  0  0  0
  4  1  1  0  0  0  0
  6  2  1  0  0  0  0
  6 10  1  0  0  0  0
  7  2  1  0  0  0  0
  9  6  1  0  0  0  0
  9 12  1  0  0  0  0
 11  6  1  0  0  0  0
 13  9  1  0  0  0  0
 14  9  1  0  0  0  0
M  END
$$$$
