14
butane_opt
C  -3.942415   0.237172   0.071602
C  -2.714135  -0.590127  -0.029146
H  -4.793140  -0.318829   0.297253
H  -4.097849   0.903493  -0.837996
H  -3.887923   0.830466   0.870983
C  -1.412409   0.208950  -0.033303
H  -2.796271  -1.388029  -0.996819
H  -2.646242  -1.137625   0.820615
C  -0.147510  -0.709852   0.081231
H  -1.421951   0.854741   0.777944
H  -1.412476   0.918814  -1.016927
H  -0.197630  -1.352228   1.026208
H   0.784985  -0.125623   0.138854
H   0.044123  -1.405747  -0.727118
