butane_opt
 OpenBabel08242015423D

 14 13  0  0  0  0  0  0  0  0999 V2000
   -3.9438    0.2685   -0.0100 C   0  0  0  0  0  0  0  0  0  0  0  0
   -2.6787   -0.6152    0.0546 C   0  0  0  0  0  0  0  0  0  0  0  0
   -4.8440   -0.3008    0.1340 H   0  0  0  0  0  0  0  0  0  0  0  0
   -4.0238    0.9863   -0.9696 H   0  0  0  0  0  0  0  0  0  0  0  0
   -3.9150    0.9281    0.8769 H   0  0  0  0  0  0  0  0  0  0  0  0
   -1.3982    0.1492    0.0252 C   0  0  0  0  0  0  0  0  0  0  0  0
   -2.6428   -1.1992   -0.6847 H   0  0  0  0  0  0  0  0  0  0  0  0
   -2.7452   -1.3354    1.0305 H   0  0  0  0  0  0  0  0  0  0  0  0
   -0.1745   -0.6775    0.0082 C   0  0  0  0  0  0  0  0  0  0  0  0
   -1.3864    0.8130    0.8899 H   0  0  0  0  0  0  0  0  0  0  0  0
   -1.4566    0.7531   -0.8631 H   0  0  0  0  0  0  0  0  0  0  0  0
   -0.2592   -1.1113    0.8055 H   0  0  0  0  0  0  0  0  0  0  0  0
    0.7467   -0.0265    0.2390 H   0  0  0  0  0  0  0  0  0  0  0  0
   -0.1568   -1.4721   -0.9698 H   0  0  0  0  0  0  0  0  0  0  0  0
  1  2  1  0  0  0  0
  1  3  1  0  0  0  0
  1  5  1  0  0  0  0
  2  8  1  0  0  0  0
  4  1  1  0  0  0  0
  6  2  1  0  0  0  0
  6 10  1  0  0  0  0
  7  2  1  0  0  0  0
  9  6  1  0  0  0  0
  9 13  1  0  0  0  0
  9 12  1  0  0  0  0
 11  6  1  0  0  0  0
 14  9  1  0  0  0  0
M  END
$$$$
