14
butane_opt
C  -3.936996   0.251240   0.002789
C  -2.705515  -0.592004   0.051417
H  -4.851000  -0.389748   0.276999
H  -3.973474   1.001817  -0.988304
H  -3.906739   0.768037   0.778947
C  -1.408301   0.200684   0.020086
H  -2.701636  -1.335549  -0.852541
H  -2.708503  -1.161672   0.876387
C  -0.143246  -0.714563   0.018876
H  -1.446928   0.882672   0.917847
H  -1.442014   0.771305  -0.839305
H  -0.223866  -1.220612   0.863532
H   0.742922  -0.115807   0.081544
H  -0.165791  -1.411719  -0.808590
