butane_opt
 OpenBabel08242015423D

 14 13  0  0  0  0  0  0  0  0999 V2000
   -3.9591    0.2768    0.0742 C   0  0  0  0  0  0  0  0  0  0  0  0
   -2.6872   -0.6427   -0.0283 C   0  0  0  0  0  0  0  0  0  0  0  0
   -4.8465   -0.2945    0.2063 H   0  0  0  0  0  0  0  0  0  0  0  0
   -4.0642    0.9599   -0.8808 H   0  0  0  0  0  0  0  0  0  0  0  0
   -3.8127    0.8567    0.8644 H   0  0  0  0  0  0  0  0  0  0  0  0
   -1.4068    0.1973   -0.0309 C   0  0  0  0  0  0  0  0  0  0  0  0
   -2.7096   -1.3702   -0.9122 H   0  0  0  0  0  0  0  0  0  0  0  0
   -2.7403   -1.2258    0.8275 H   0  0  0  0  0  0  0  0  0  0  0  0
   -0.1635   -0.6773    0.0681 C   0  0  0  0  0  0  0  0  0  0  0  0
   -1.3867    0.8957    0.8299 H   0  0  0  0  0  0  0  0  0  0  0  0
   -1.3719    0.7332   -0.9089 H   0  0  0  0  0  0  0  0  0  0  0  0
   -0.1967   -1.4317    1.0502 H   0  0  0  0  0  0  0  0  0  0  0  0
    0.7281   -0.1117    0.0826 H   0  0  0  0  0  0  0  0  0  0  0  0
   -0.0443   -1.3147   -0.7124 H   0  0  0  0  0  0  0  0  0  0  0  0
  1  3  1  0  0  0  0
  1  5  1  0  0  0  0
  2  1  1  0  0  0  0
  2  8  1  0  0  0  0
  4  1  1  0  0  0  0
  6  2  1  0  0  0  0
  6  9  1  0  0  0  0
  6 10  1  0  0  0  0
  7  2  1  0  0  0  0
  9 13  1  0  0  0  0
  9 12  1  0  0  0  0
 11  6  1  0  0  0  0
 14  9  1  0  0  0  0
M  END
$$$$
