butane_opt
 OpenBabel08242015423D

 14 13  0  0  0  0  0  0  0  0999 V2000
   -3.9589    0.2803   -0.0464 C   0  0  0  0  0  0  0  0  0  0  0  0
   -2.6663   -0.6255    0.0768 C   0  0  0  0  0  0  0  0  0  0  0  0
   -4.8488   -0.2724    0.1260 H   0  0  0  0  0  0  0  0  0  0  0  0
   -3.9285    0.9647   -1.0124 H   0  0  0  0  0  0  0  0  0  0  0  0
   -3.9588    0.8768    0.7909 H   0  0  0  0  0  0  0  0  0  0  0  0
   -1.3991    0.1560    0.0928 C   0  0  0  0  0  0  0  0  0  0  0  0
   -2.6156   -1.3835   -0.7600 H   0  0  0  0  0  0  0  0  0  0  0  0
   -2.7616   -1.2566    0.9804 H   0  0  0  0  0  0  0  0  0  0  0  0
   -0.1883   -0.6674   -0.0109 C   0  0  0  0  0  0  0  0  0  0  0  0
   -1.3116    0.8477    0.9731 H   0  0  0  0  0  0  0  0  0  0  0  0
   -1.4634    0.7901   -0.7951 H   0  0  0  0  0  0  0  0  0  0  0  0
   -0.0413   -1.3318    0.9099 H   0  0  0  0  0  0  0  0  0  0  0  0
    0.7978   -0.0301   -0.2073 H   0  0  0  0  0  0  0  0  0  0  0  0
   -0.3623   -1.3714   -0.9068 H   0  0  0  0  0  0  0  0  0  0  0  0
  1  2  1  0  0  0  0
  1  3  1  0  0  0  0
  1  5  1  0  0  0  0
  2  6  1  0  0  0  0
  2  8  1  0  0  0  0
  4  1  1  0  0  0  0
  6 10  1  0  0  0  0
  7  2  1  0  0  0  0
  9  6  1  0  0  0  0
  9 12  1  0  0  0  0
 11  6  1  0  0  0  0
 13  9  1  0  0  0  0
 14  9  1  0  0  0  0
M  END
$$$$
