butane_opt
 OpenBabel08242015423D

 14 13  0  0  0  0  0  0  0  0999 V2000
   -3.9447    0.2402    0.0484 C   0  0  0  0  0  0  0  0  0  0  0  0
   -2.7275   -0.6002   -0.0119 C   0  0  0  0  0  0  0  0  0  0  0  0
   -4.8669   -0.3935    0.0230 H   0  0  0  0  0  0  0  0  0  0  0  0
   -4.0068    0.7472   -0.7402 H   0  0  0  0  0  0  0  0  0  0  0  0
   -3.8919    1.0665    1.0087 H   0  0  0  0  0  0  0  0  0  0  0  0
   -1.4239    0.2154   -0.0120 C   0  0  0  0  0  0  0  0  0  0  0  0
   -2.6907   -1.3619   -0.9211 H   0  0  0  0  0  0  0  0  0  0  0  0
   -2.7148   -1.1479    0.8043 H   0  0  0  0  0  0  0  0  0  0  0  0
   -0.1173   -0.7160    0.0718 C   0  0  0  0  0  0  0  0  0  0  0  0
   -1.4895    0.8845    0.8302 H   0  0  0  0  0  0  0  0  0  0  0  0
   -1.3473    0.9455   -0.9410 H   0  0  0  0  0  0  0  0  0  0  0  0
   -0.0491   -1.5705    1.1497 H   0  0  0  0  0  0  0  0  0  0  0  0
    0.7717   -0.1227   -0.2461 H   0  0  0  0  0  0  0  0  0  0  0  0
   -0.1668   -1.2032   -0.6555 H   0  0  0  0  0  0  0  0  0  0  0  0
  1  5  1  0  0  0  0
  2  1  1  0  0  0  0
  2  8  1  0  0  0  0
  3  1  1  0  0  0  0
  4  1  1  0  0  0  0
  6  2  1  0  0  0  0
  6  9  1  0  0  0  0
  6 10  1  0  0  0  0
  7  2  1  0  0  0  0
  9 12  1  0  0  0  0
 11  6  1  0  0  0  0
 13  9  1  0  0  0  0
 14  9  1  0  0  0  0
M  END
$$$$
