14
butane_opt
C  -3.960113   0.258966   0.044507
C  -2.720862  -0.605609   0.006090
H  -4.926483  -0.425641  -0.018449
H  -3.926680   0.927002  -0.897636
H  -3.940283   0.860190   0.875986
C  -1.402172   0.206972   0.016862
H  -2.767601  -1.342372  -0.869170
H  -2.726741  -1.140796   0.864546
C  -0.126685  -0.708110   0.040925
H  -1.379481   0.931057   0.939549
H  -1.352666   0.834286  -0.896133
H  -0.038154  -1.531108   1.089412
H   0.727429  -0.173191  -0.180094
H  -0.168539  -1.249203  -0.767330
