butane_opt
 OpenBabel08242015423D

 14 13  0  0  0  0  0  0  0  0999 V2000
   -3.9624    0.2700    0.0255 C   0  0  0  0  0  0  0  0  0  0  0  0
   -2.7000   -0.6103    0.0310 C   0  0  0  0  0  0  0  0  0  0  0  0
   -4.8941   -0.2829    0.1994 H   0  0  0  0  0  0  0  0  0  0  0  0
   -4.0387    0.9509   -0.9345 H   0  0  0  0  0  0  0  0  0  0  0  0
   -3.8327    0.7575    0.7510 H   0  0  0  0  0  0  0  0  0  0  0  0
   -1.3929    0.1815   -0.0017 C   0  0  0  0  0  0  0  0  0  0  0  0
   -2.6974   -1.3103   -0.7940 H   0  0  0  0  0  0  0  0  0  0  0  0
   -2.7252   -1.2038    0.8994 H   0  0  0  0  0  0  0  0  0  0  0  0
   -0.1596   -0.6927    0.0286 C   0  0  0  0  0  0  0  0  0  0  0  0
   -1.3378    0.9017    0.8920 H   0  0  0  0  0  0  0  0  0  0  0  0
   -1.3870    0.7334   -0.8225 H   0  0  0  0  0  0  0  0  0  0  0  0
   -0.2183   -1.2664    0.9193 H   0  0  0  0  0  0  0  0  0  0  0  0
    0.7336   -0.1166    0.1569 H   0  0  0  0  0  0  0  0  0  0  0  0
   -0.0538   -1.4158   -0.8469 H   0  0  0  0  0  0  0  0  0  0  0  0
  1  2  1  0  0  0  0
  1  3  1  0  0  0  0
  1  5  1  0  0  0  0
  2  8  1  0  0  0  0
  4  1  1  0  0  0  0
  6  9  1  0  0  0  0
  6  2  1  0  0  0  0
  6 10  1  0  0  0  0
  7  2  1  0  0  0  0
  9 13  1  0  0  0  0
  9 12  1  0  0  0  0
 11  6  1  0  0  0  0
 14  9  1  0  0  0  0
M  END
$$$$
