14
butane_opt
C  -3.958866   0.280350  -0.046357
C  -2.666260  -0.625488   0.076768
H  -4.848783  -0.272372   0.125969
H  -3.928515   0.964676  -1.012398
H  -3.958763   0.876783   0.790913
C  -1.399115   0.155964   0.092797
H  -2.615584  -1.383457  -0.759998
H  -2.761550  -1.256618   0.980355
C  -0.188317  -0.667370  -0.010944
H  -1.311566   0.847708   0.973067
H  -1.463380   0.790123  -0.795075
H  -0.041302  -1.331794   0.909857
H   0.797815  -0.030070  -0.207312
H  -0.362316  -1.371382  -0.906827
