14
butane_opt
C  -3.944670   0.240211   0.048414
C  -2.727499  -0.600193  -0.011942
H  -4.866866  -0.393482   0.023024
H  -4.006753   0.747250  -0.740152
H  -3.891919   1.066547   1.008695
C  -1.423931   0.215374  -0.011996
H  -2.690736  -1.361931  -0.921088
H  -2.714761  -1.147910   0.804280
C  -0.117318  -0.715957   0.071848
H  -1.489506   0.884466   0.830175
H  -1.347281   0.945515  -0.941037
H  -0.049148  -1.570495   1.149656
H   0.771698  -0.122677  -0.246129
H  -0.166781  -1.203214  -0.655536
