butane_opt
 OpenBabel08242015423D

 14 13  0  0  0  0  0  0  0  0999 V2000
   -3.9576    0.2543    0.0172 C   0  0  0  0  0  0  0  0  0  0  0  0
   -2.7190   -0.6085    0.0136 C   0  0  0  0  0  0  0  0  0  0  0  0
   -4.8535   -0.3256    0.0429 H   0  0  0  0  0  0  0  0  0  0  0  0
   -4.0428    0.7716   -0.8048 H   0  0  0  0  0  0  0  0  0  0  0  0
   -3.9517    0.9373    0.9109 H   0  0  0  0  0  0  0  0  0  0  0  0
   -1.4046    0.2094    0.0326 C   0  0  0  0  0  0  0  0  0  0  0  0
   -2.6817   -1.2874   -0.8631 H   0  0  0  0  0  0  0  0  0  0  0  0
   -2.7007   -1.2245    0.8809 H   0  0  0  0  0  0  0  0  0  0  0  0
   -0.1303   -0.7113    0.0394 C   0  0  0  0  0  0  0  0  0  0  0  0
   -1.3970    0.8335    0.8227 H   0  0  0  0  0  0  0  0  0  0  0  0
   -1.4202    0.9103   -0.8674 H   0  0  0  0  0  0  0  0  0  0  0  0
   -0.0853   -1.4191    1.0247 H   0  0  0  0  0  0  0  0  0  0  0  0
    0.8167   -0.1372   -0.1837 H   0  0  0  0  0  0  0  0  0  0  0  0
   -0.1591   -1.2601   -0.7427 H   0  0  0  0  0  0  0  0  0  0  0  0
  1  3  1  0  0  0  0
  1  5  1  0  0  0  0
  2  1  1  0  0  0  0
  2  6  1  0  0  0  0
  2  8  1  0  0  0  0
  4  1  1  0  0  0  0
  6  9  1  0  0  0  0
  6 10  1  0  0  0  0
  7  2  1  0  0  0  0
  9 12  1  0  0  0  0
 11  6  1  0  0  0  0
 13  9  1  0  0  0  0
 14  9  1  0  0  0  0
M  END
$$$$
