butane_opt
 OpenBabel08242015423D

 14 13  0  0  0  0  0  0  0  0999 V2000
   -3.9334    0.2525   -0.0478 C   0  0  0  0  0  0  0  0  0  0  0  0
   -2.6991   -0.6013    0.0943 C   0  0  0  0  0  0  0  0  0  0  0  0
   -4.8775   -0.3418    0.0030 H   0  0  0  0  0  0  0  0  0  0  0  0
   -3.8668    0.8420   -0.9552 H   0  0  0  0  0  0  0  0  0  0  0  0
   -3.9249    0.8305    0.7694 H   0  0  0  0  0  0  0  0  0  0  0  0
   -1.3995    0.2197    0.0891 C   0  0  0  0  0  0  0  0  0  0  0  0
   -2.6224   -1.2765   -0.7402 H   0  0  0  0  0  0  0  0  0  0  0  0
   -2.8049   -1.2223    0.9667 H   0  0  0  0  0  0  0  0  0  0  0  0
   -0.1774   -0.7109   -0.0223 C   0  0  0  0  0  0  0  0  0  0  0  0
   -1.3240    0.8909    0.9719 H   0  0  0  0  0  0  0  0  0  0  0  0
   -1.5253    0.8173   -0.7449 H   0  0  0  0  0  0  0  0  0  0  0  0
    0.0312   -1.3825    0.8919 H   0  0  0  0  0  0  0  0  0  0  0  0
    0.6936   -0.1961   -0.1979 H   0  0  0  0  0  0  0  0  0  0  0  0
   -0.2869   -1.3548   -0.8719 H   0  0  0  0  0  0  0  0  0  0  0  0
  1  3  1  0  0  0  0
  1  2  1  0  0  0  0
  1  5  1  0  0  0  0
  2  8  1  0  0  0  0
  4  1  1  0  0  0  0
  6  2  1  0  0  0  0
  6 10  1  0  0  0  0
  7  2  1  0  0  0  0
  9  6  1  0  0  0  0
  9 12  1  0  0  0  0
 11  6  1  0  0  0  0
 13  9  1  0  0  0  0
 14  9  1  0  0  0  0
M  END
$$$$
