14
butane_opt
C  -3.957596   0.254259   0.017225
C  -2.719011  -0.608462   0.013586
H  -4.853458  -0.325578   0.042912
H  -4.042762   0.771557  -0.804792
H  -3.951666   0.937322   0.910930
C  -1.404618   0.209443   0.032580
H  -2.681687  -1.287371  -0.863134
H  -2.700656  -1.224525   0.880852
C  -0.130263  -0.711295   0.039402
H  -1.396967   0.833455   0.822698
H  -1.420227   0.910273  -0.867386
H  -0.085321  -1.419076   1.024692
H   0.816719  -0.137154  -0.183750
H  -0.159065  -1.260090  -0.742749
