14
butane_opt
C  -3.969459   0.253671  -0.021559
C  -2.711378  -0.593300   0.101189
H  -4.915887  -0.382849   0.038822
H  -3.911666   0.931596  -0.972084
H  -3.887819   0.782337   0.767499
C  -1.392075   0.207399   0.018108
H  -2.717340  -1.197038  -0.700584
H  -2.845398  -1.290623   1.062474
C  -0.138832  -0.727581  -0.013184
H  -1.303651   0.994437   0.968168
H  -1.460242   0.814645  -0.789695
H  -0.201904  -1.110585   0.778186
H   0.740225  -0.159993   0.240673
H   0.026437  -1.557188  -0.999734
