butane_opt
 OpenBabel08242015423D

 14 13  0  0  0  0  0  0  0  0999 V2000
   -3.9319    0.2544    0.0431 C   0  0  0  0  0  0  0  0  0  0  0  0
   -2.7047   -0.5992    0.0149 C   0  0  0  0  0  0  0  0  0  0  0  0
   -4.8488   -0.3651    0.0780 H   0  0  0  0  0  0  0  0  0  0  0  0
   -3.9778    0.9177   -0.8782 H   0  0  0  0  0  0  0  0  0  0  0  0
   -3.9111    0.8758    0.8931 H   0  0  0  0  0  0  0  0  0  0  0  0
   -1.4200    0.1850   -0.0149 C   0  0  0  0  0  0  0  0  0  0  0  0
   -2.7572   -1.3178   -0.8865 H   0  0  0  0  0  0  0  0  0  0  0  0
   -2.6829   -1.1492    0.8699 H   0  0  0  0  0  0  0  0  0  0  0  0
   -0.1572   -0.7056    0.0571 C   0  0  0  0  0  0  0  0  0  0  0  0
   -1.4146    0.8484    0.8431 H   0  0  0  0  0  0  0  0  0  0  0  0
   -1.4115    0.8192   -0.8923 H   0  0  0  0  0  0  0  0  0  0  0  0
   -0.1120   -1.3052    0.9451 H   0  0  0  0  0  0  0  0  0  0  0  0
    0.7736   -0.1015    0.0212 H   0  0  0  0  0  0  0  0  0  0  0  0
   -0.1129   -1.3063   -0.7606 H   0  0  0  0  0  0  0  0  0  0  0  0
  1  3  1  0  0  0  0
  1  5  1  0  0  0  0
  2  1  1  0  0  0  0
  2  8  1  0  0  0  0
  4  1  1  0  0  0  0
  6  2  1  0  0  0  0
  6  9  1  0  0  0  0
  6 10  1  0  0  0  0
  7  2  1  0  0  0  0
  9 12  1  0  0  0  0
 11  6  1  0  0  0  0
 13  9  1  0  0  0  0
 14  9  1  0  0  0  0
M  END
$$$$
