14
butane_opt
C  -3.950514   0.245066   0.085120
C  -2.728542  -0.598604   0.004686
H  -4.879525  -0.368682   0.023927
H  -4.016037   0.821945  -0.805675
H  -3.913445   0.891825   0.924869
C  -1.411753   0.214188  -0.060476
H  -2.786333  -1.318158  -0.924734
H  -2.659809  -1.138440   0.822817
C  -0.122568  -0.720837   0.078371
H  -1.489482   0.815771   0.719384
H  -1.395568   0.965019  -1.056429
H  -0.217071  -1.249844   0.901782
H   0.800892  -0.128641   0.278853
H   0.098676  -1.449284  -0.748522
