14
butane_opt
C  -3.925137   0.249851   0.006031
C  -2.689377  -0.584479   0.073858
H  -4.915408  -0.453735   0.023130
H  -3.863263   0.954715  -0.957611
H  -4.019317   0.809574   0.771111
C  -1.425384   0.204926   0.023520
H  -2.749016  -1.253144  -0.793431
H  -2.668065  -1.271868   1.024910
C  -0.164991  -0.717624   0.012305
H  -1.345236   0.853784   0.848130
H  -1.425328   0.838817  -0.890313
H  -0.212729  -1.108727   0.784810
H   0.732312  -0.106902   0.173360
H  -0.074878  -1.585698  -0.965885
