14
butane_opt
C  -3.933421   0.252453  -0.047815
C  -2.699051  -0.601254   0.094337
H  -4.877484  -0.341834   0.002975
H  -3.866837   0.841966  -0.955210
H  -3.924908   0.830461   0.769401
C  -1.399508   0.219736   0.089149
H  -2.622413  -1.276458  -0.740187
H  -2.804864  -1.222264   0.966704
C  -0.177399  -0.710942  -0.022252
H  -1.323992   0.890935   0.971930
H  -1.525322   0.817250  -0.744912
H   0.031200  -1.382522   0.891852
H   0.693552  -0.196107  -0.197876
H  -0.286880  -1.354773  -0.871858
