14
butane_opt
C  -3.931972   0.267022  -0.010630
C  -2.686716  -0.624872   0.049187
H  -4.835014  -0.302733   0.161321
H  -4.056575   1.035683  -1.006223
H  -3.961567   0.836136   0.790297
C  -1.402786   0.173672   0.049180
H  -2.716929  -1.277112  -0.741918
H  -2.700076  -1.298547   0.974370
C  -0.172695  -0.685390   0.000999
H  -1.376323   0.917349   0.953309
H  -1.436196   0.763725  -0.807134
H  -0.193460  -1.233720   0.875629
H   0.740063  -0.070298   0.036226
H  -0.154294  -1.402298  -0.886221
