14
butane_opt
C  -3.953400   0.281381   0.076451
C  -2.682457  -0.623781  -0.042152
H  -4.843683  -0.317212   0.244689
H  -4.115126   0.926456  -0.877317
H  -3.808806   0.904788   0.922019
C  -1.395872   0.150466  -0.048941
H  -2.706466  -1.296578  -0.905953
H  -2.600032  -1.164197   0.773767
C  -0.194679  -0.682495   0.096716
H  -1.310444   0.850688   0.855071
H  -1.344997   0.761613  -0.908592
H  -0.263708  -1.358494   1.023142
H   0.781583  -0.006298   0.009328
H  -0.101949  -1.266358  -0.682467
