14
butane_opt
C  -3.949829   0.278927   0.045220
C  -2.703749  -0.630859  -0.025259
H  -4.823289  -0.266114   0.118971
H  -4.048823   0.818497  -0.789403
H  -3.892661   1.018388   0.982768
C  -1.401979   0.172561  -0.009481
H  -2.744908  -1.386312  -0.932300
H  -2.607605  -1.219328   0.824407
C  -0.156884  -0.686876   0.077833
H  -1.445703   0.777060   0.788635
H  -1.353265   0.802801  -0.848105
H  -0.050325  -1.464560   1.073525
H   0.776994  -0.004949  -0.184813
H  -0.293145  -1.131046  -0.630335
