butane_opt
 OpenBabel08242015423D

 14 13  0  0  0  0  0  0  0  0999 V2000
   -3.9498    0.2789    0.0452 C   0  0  0  0  0  0  0  0  0  0  0  0
   -2.7037   -0.6309   -0.0253 C   0  0  0  0  0  0  0  0  0  0  0  0
   -4.8233   -0.2661    0.1190 H   0  0  0  0  0  0  0  0  0  0  0  0
   -4.0488    0.8185   -0.7894 H   0  0  0  0  0  0  0  0  0  0  0  0
   -3.8927    1.0184    0.9828 H   0  0  0  0  0  0  0  0  0  0  0  0
   -1.4020    0.1726   -0.0095 C   0  0  0  0  0  0  0  0  0  0  0  0
   -2.7449   -1.3863   -0.9323 H   0  0  0  0  0  0  0  0  0  0  0  0
   -2.6076   -1.2193    0.8244 H   0  0  0  0  0  0  0  0  0  0  0  0
   -0.1569   -0.6869    0.0778 C   0  0  0  0  0  0  0  0  0  0  0  0
   -1.4457    0.7771    0.7886 H   0  0  0  0  0  0  0  0  0  0  0  0
   -1.3533    0.8028   -0.8481 H   0  0  0  0  0  0  0  0  0  0  0  0
   -0.0503   -1.4646    1.0735 H   0  0  0  0  0  0  0  0  0  0  0  0
    0.7770   -0.0049   -0.1848 H   0  0  0  0  0  0  0  0  0  0  0  0
   -0.2931   -1.1310   -0.6303 H   0  0  0  0  0  0  0  0  0  0  0  0
  1  3  1  0  0  0  0
  1  5  1  0  0  0  0
  2  6  1  0  0  0  0
  2  1  1  0  0  0  0
  2  8  1  0  0  0  0
  4  1  1  0  0  0  0
  6  9  1  0  0  0  0
  6 10  1  0  0  0  0
  7  2  1  0  0  0  0
  9 12  1  0  0  0  0
 11  6  1  0  0  0  0
 13  9  1  0  0  0  0
 14  9  1  0  0  0  0
M  END
$$$$
