butane_opt
 OpenBabel08242015423D

 14 13  0  0  0  0  0  0  0  0999 V2000
   -3.9593    0.2568    0.0789 C   0  0  0  0  0  0  0  0  0  0  0  0
   -2.7100   -0.5974   -0.0226 C   0  0  0  0  0  0  0  0  0  0  0  0
   -4.9442   -0.4212    0.0985 H   0  0  0  0  0  0  0  0  0  0  0  0
   -4.0049    0.9102   -0.8197 H   0  0  0  0  0  0  0  0  0  0  0  0
   -3.8776    0.9161    0.9770 H   0  0  0  0  0  0  0  0  0  0  0  0
   -1.4018    0.1972   -0.0483 C   0  0  0  0  0  0  0  0  0  0  0  0
   -2.8092   -1.3928   -0.9665 H   0  0  0  0  0  0  0  0  0  0  0  0
   -2.7575   -1.1363    0.7954 H   0  0  0  0  0  0  0  0  0  0  0  0
   -0.1384   -0.7105    0.0936 C   0  0  0  0  0  0  0  0  0  0  0  0
   -1.4315    0.8835    0.7617 H   0  0  0  0  0  0  0  0  0  0  0  0
   -1.3155    0.8528   -0.9565 H   0  0  0  0  0  0  0  0  0  0  0  0
   -0.0413   -1.4178    1.0321 H   0  0  0  0  0  0  0  0  0  0  0  0
    0.7269   -0.1324   -0.0109 H   0  0  0  0  0  0  0  0  0  0  0  0
   -0.0490   -1.2922   -0.6837 H   0  0  0  0  0  0  0  0  0  0  0  0
  1  3  1  0  0  0  0
  1  5  1  0  0  0  0
  2  1  1  0  0  0  0
  2  8  1  0  0  0  0
  4  1  1  0  0  0  0
  6  2  1  0  0  0  0
  6  9  1  0  0  0  0
  6 10  1  0  0  0  0
  7  2  1  0  0  0  0
  9 12  1  0  0  0  0
 11  6  1  0  0  0  0
 13  9  1  0  0  0  0
 14  9  1  0  0  0  0
M  END
$$$$
