butane_opt
 OpenBabel08242015423D

 14 13  0  0  0  0  0  0  0  0999 V2000
   -3.9377    0.2405    0.0444 C   0  0  0  0  0  0  0  0  0  0  0  0
   -2.6956   -0.5779    0.0065 C   0  0  0  0  0  0  0  0  0  0  0  0
   -4.8576   -0.3713   -0.0985 H   0  0  0  0  0  0  0  0  0  0  0  0
   -3.8847    0.6880   -0.7505 H   0  0  0  0  0  0  0  0  0  0  0  0
   -3.9040    1.1139    1.0632 H   0  0  0  0  0  0  0  0  0  0  0  0
   -1.4154    0.2041   -0.0349 C   0  0  0  0  0  0  0  0  0  0  0  0
   -2.8270   -1.2835   -0.8876 H   0  0  0  0  0  0  0  0  0  0  0  0
   -2.6607   -1.2556    0.9358 H   0  0  0  0  0  0  0  0  0  0  0  0
   -0.1649   -0.7151    0.0806 C   0  0  0  0  0  0  0  0  0  0  0  0
   -1.4139    0.8308    0.8000 H   0  0  0  0  0  0  0  0  0  0  0  0
   -1.3427    0.8383   -0.9085 H   0  0  0  0  0  0  0  0  0  0  0  0
   -0.1124   -1.4716    1.0165 H   0  0  0  0  0  0  0  0  0  0  0  0
    0.7138   -0.0957   -0.1380 H   0  0  0  0  0  0  0  0  0  0  0  0
   -0.1618   -1.2851   -0.7353 H   0  0  0  0  0  0  0  0  0  0  0  0
  1  5  1  0  0  0  0
  2  1  1  0  0  0  0
  2  8  1  0  0  0  0
  3  1  1  0  0  0  0
  4  1  1  0  0  0  0
  6  2  1  0  0  0  0
  6  9  1  0  0  0  0
  6 10  1  0  0  0  0
  7  2  1  0  0  0  0
  9 12  1  0  0  0  0
 11  6  1  0  0  0  0
 13  9  1  0  0  0  0
 14  9  1  0  0  0  0
M  END
$$$$
