14
butane_opt
C  -3.931143   0.273093   0.037005
C  -2.691414  -0.631078   0.002825
H  -4.823599  -0.303384   0.039767
H  -4.002018   0.846751  -0.828074
H  -3.988096   1.006083   0.933945
C  -1.406742   0.174977   0.006590
H  -2.754440  -1.311872  -0.883174
H  -2.671440  -1.224211   0.857865
C  -0.175538  -0.687937   0.055095
H  -1.385176   0.856354   0.859674
H  -1.346078   0.844683  -0.914787
H  -0.122614  -1.431493   1.023570
H   0.780498  -0.061565  -0.147445
H  -0.250931  -1.235724  -0.703149
