14
butane_opt
C  -3.952495   0.284481   0.047286
C  -2.698500  -0.643857  -0.012873
H  -4.815554  -0.297878   0.289826
H  -4.149381   0.989220  -0.908422
H  -3.896041   0.915588   0.901168
C  -1.388663   0.170441  -0.012361
H  -2.706788  -1.387693  -0.952606
H  -2.705090  -1.259369   0.885179
C  -0.175973  -0.668815   0.075309
H  -1.372467   0.789450   0.776386
H  -1.371532   0.831921  -0.955637
H  -0.126515  -1.263965   0.966955
H   0.763646  -0.082434   0.106523
H  -0.070078  -1.395035  -0.835986
