butane_opt
 OpenBabel08242015423D

 14 13  0  0  0  0  0  0  0  0999 V2000
   -3.9530    0.2539    0.0610 C   0  0  0  0  0  0  0  0  0  0  0  0
   -2.7186   -0.6030    0.0175 C   0  0  0  0  0  0  0  0  0  0  0  0
   -4.8908   -0.3541   -0.1833 H   0  0  0  0  0  0  0  0  0  0  0  0
   -3.9116    0.6255   -0.7275 H   0  0  0  0  0  0  0  0  0  0  0  0
   -3.9694    1.1137    1.0572 H   0  0  0  0  0  0  0  0  0  0  0  0
   -1.4196    0.2164   -0.0637 C   0  0  0  0  0  0  0  0  0  0  0  0
   -2.8288   -1.2839   -0.8962 H   0  0  0  0  0  0  0  0  0  0  0  0
   -2.7060   -1.2641    0.9391 H   0  0  0  0  0  0  0  0  0  0  0  0
   -0.1231   -0.7219    0.0775 C   0  0  0  0  0  0  0  0  0  0  0  0
   -1.4016    0.8736    0.7861 H   0  0  0  0  0  0  0  0  0  0  0  0
   -1.4187    0.8274   -0.9339 H   0  0  0  0  0  0  0  0  0  0  0  0
   -0.0943   -1.4081    1.0259 H   0  0  0  0  0  0  0  0  0  0  0  0
    0.7932   -0.0834   -0.0014 H   0  0  0  0  0  0  0  0  0  0  0  0
   -0.0250   -1.2660   -0.7084 H   0  0  0  0  0  0  0  0  0  0  0  0
  1  5  1  0  0  0  0
  2  1  1  0  0  0  0
  2  8  1  0  0  0  0
  3  1  1  0  0  0  0
  4  1  1  0  0  0  0
  6  2  1  0  0  0  0
  6  9  1  0  0  0  0
  6 10  1  0  0  0  0
  7  2  1  0  0  0  0
  9 12  1  0  0  0  0
 11  6  1  0  0  0  0
 13  9  1  0  0  0  0
 14  9  1  0  0  0  0
M  END
$$$$
