14
butane_opt
C  -3.916123   0.249048   0.059958
C  -2.692198  -0.605455   0.005409
H  -4.822095  -0.351492  -0.107724
H  -3.874435   0.644270  -0.703481
H  -3.923687   1.074864   1.043111
C  -1.435180   0.210953  -0.047821
H  -2.820320  -1.247519  -0.834339
H  -2.692454  -1.223449   0.885180
C  -0.159455  -0.705674   0.063946
H  -1.439992   0.856295   0.724102
H  -1.497281   0.856644  -0.938618
H  -0.213381  -1.490259   1.048788
H   0.725362  -0.087448   0.107881
H  -0.036172  -1.296916  -0.727815
