14
butane_opt
C  -3.956475   0.234434   0.002080
C  -2.716036  -0.617952   0.077772
H  -4.825144  -0.282070   0.013761
H  -3.963047   0.990361  -0.966819
H  -3.959337   0.845466   0.830119
C  -1.406774   0.227445   0.006627
H  -2.715468  -1.156482  -0.697808
H  -2.696933  -1.298039   0.993076
C  -0.137184  -0.717721   0.007418
H  -1.349637   0.915690   0.902659
H  -1.492073   0.818837  -0.866143
H  -0.234570  -1.107457   0.772471
H   0.778997  -0.152214   0.298485
H   0.036566  -1.568959  -1.000097
