butane_opt
 OpenBabel08242015423D

 14 13  0  0  0  0  0  0  0  0999 V2000
   -3.9610    0.2599    0.0560 C   0  0  0  0  0  0  0  0  0  0  0  0
   -2.7069   -0.6092   -0.0077 C   0  0  0  0  0  0  0  0  0  0  0  0
   -4.9723   -0.4291    0.0281 H   0  0  0  0  0  0  0  0  0  0  0  0
   -3.9892    0.8525   -0.8190 H   0  0  0  0  0  0  0  0  0  0  0  0
   -3.9631    0.9451    0.9331 H   0  0  0  0  0  0  0  0  0  0  0  0
   -1.4095    0.2027   -0.0053 C   0  0  0  0  0  0  0  0  0  0  0  0
   -2.7014   -1.3661   -0.9085 H   0  0  0  0  0  0  0  0  0  0  0  0
   -2.7550   -1.1689    0.8026 H   0  0  0  0  0  0  0  0  0  0  0  0
   -0.1301   -0.7102    0.0589 C   0  0  0  0  0  0  0  0  0  0  0  0
   -1.3709    0.9368    0.8855 H   0  0  0  0  0  0  0  0  0  0  0  0
   -1.3819    0.8691   -0.8999 H   0  0  0  0  0  0  0  0  0  0  0  0
   -0.0928   -1.5571    1.1217 H   0  0  0  0  0  0  0  0  0  0  0  0
    0.7653   -0.1221   -0.1858 H   0  0  0  0  0  0  0  0  0  0  0  0
   -0.0641   -1.1643   -0.7162 H   0  0  0  0  0  0  0  0  0  0  0  0
  1  5  1  0  0  0  0
  2  6  1  0  0  0  0
  2  1  1  0  0  0  0
  2  8  1  0  0  0  0
  3  1  1  0  0  0  0
  4  1  1  0  0  0  0
  6  9  1  0  0  0  0
  6 10  1  0  0  0  0
  7  2  1  0  0  0  0
  9 12  1  0  0  0  0
 11  6  1  0  0  0  0
 13  9  1  0  0  0  0
 14  9  1  0  0  0  0
M  END
$$$$
