14
butane_opt
C  -3.937667   0.240492   0.044351
C  -2.695605  -0.577889   0.006492
H  -4.857584  -0.371349  -0.098479
H  -3.884651   0.688010  -0.750456
H  -3.904016   1.113862   1.063186
C  -1.415408   0.204076  -0.034929
H  -2.826953  -1.283455  -0.887590
H  -2.660731  -1.255639   0.935819
C  -0.164864  -0.715097   0.080644
H  -1.413921   0.830764   0.800016
H  -1.342715   0.838251  -0.908492
H  -0.112378  -1.471624   1.016499
H   0.713754  -0.095664  -0.138022
H  -0.161820  -1.285061  -0.735255
