butane_opt
 OpenBabel08242015423D

 14 13  0  0  0  0  0  0  0  0999 V2000
   -3.9292    0.2418    0.0448 C   0  0  0  0  0  0  0  0  0  0  0  0
   -2.7028   -0.6064    0.0185 C   0  0  0  0  0  0  0  0  0  0  0  0
   -4.8274   -0.3358   -0.1638 H   0  0  0  0  0  0  0  0  0  0  0  0
   -3.8708    0.6494   -0.6971 H   0  0  0  0  0  0  0  0  0  0  0  0
   -4.0120    1.2249    1.1318 H   0  0  0  0  0  0  0  0  0  0  0  0
   -1.3996    0.2095   -0.0344 C   0  0  0  0  0  0  0  0  0  0  0  0
   -2.7114   -1.2459   -0.7736 H   0  0  0  0  0  0  0  0  0  0  0  0
   -2.8311   -1.2374    0.8852 H   0  0  0  0  0  0  0  0  0  0  0  0
   -0.1634   -0.7068    0.0633 C   0  0  0  0  0  0  0  0  0  0  0  0
   -1.4557    0.8286    0.7344 H   0  0  0  0  0  0  0  0  0  0  0  0
   -1.4299    0.8793   -0.9918 H   0  0  0  0  0  0  0  0  0  0  0  0
   -0.1596   -1.4496    0.9981 H   0  0  0  0  0  0  0  0  0  0  0  0
    0.7204   -0.1561   -0.0315 H   0  0  0  0  0  0  0  0  0  0  0  0
   -0.0994   -1.2882   -0.7092 H   0  0  0  0  0  0  0  0  0  0  0  0
  1  5  1  0  0  0  0
  2  1  1  0  0  0  0
  2  8  1  0  0  0  0
  3  1  1  0  0  0  0
  4  1  1  0  0  0  0
  6  2  1  0  0  0  0
  6  9  1  0  0  0  0
  6 10  1  0  0  0  0
  7  2  1  0  0  0  0
  9 12  1  0  0  0  0
 11  6  1  0  0  0  0
 13  9  1  0  0  0  0
 14  9  1  0  0  0  0
M  END
$$$$
