butane_opt
 OpenBabel08242015423D

 14 13  0  0  0  0  0  0  0  0999 V2000
   -3.9567    0.2470   -0.0236 C   0  0  0  0  0  0  0  0  0  0  0  0
   -2.7156   -0.6037    0.0617 C   0  0  0  0  0  0  0  0  0  0  0  0
   -4.8097   -0.2835    0.2290 H   0  0  0  0  0  0  0  0  0  0  0  0
   -4.0752    0.9903   -1.0073 H   0  0  0  0  0  0  0  0  0  0  0  0
   -3.8355    0.7968    0.7382 H   0  0  0  0  0  0  0  0  0  0  0  0
   -1.3906    0.2174    0.0517 C   0  0  0  0  0  0  0  0  0  0  0  0
   -2.7426   -1.2942   -0.7631 H   0  0  0  0  0  0  0  0  0  0  0  0
   -2.8002   -1.2793    0.9866 H   0  0  0  0  0  0  0  0  0  0  0  0
   -0.1456   -0.7093   -0.0023 C   0  0  0  0  0  0  0  0  0  0  0  0
   -1.3696    0.9277    0.9228 H   0  0  0  0  0  0  0  0  0  0  0  0
   -1.4302    0.7412   -0.7623 H   0  0  0  0  0  0  0  0  0  0  0  0
   -0.0660   -1.2596    0.8497 H   0  0  0  0  0  0  0  0  0  0  0  0
    0.7301   -0.2076    0.0880 H   0  0  0  0  0  0  0  0  0  0  0  0
   -0.1218   -1.4085   -0.9073 H   0  0  0  0  0  0  0  0  0  0  0  0
  1  2  1  0  0  0  0
  1  3  1  0  0  0  0
  1  5  1  0  0  0  0
  2  8  1  0  0  0  0
  4  1  1  0  0  0  0
  6  2  1  0  0  0  0
  6 10  1  0  0  0  0
  7  2  1  0  0  0  0
  9  6  1  0  0  0  0
  9 13  1  0  0  0  0
  9 12  1  0  0  0  0
 11  6  1  0  0  0  0
 14  9  1  0  0  0  0
M  END
$$$$
