butane_opt
 OpenBabel08242015423D

 14 13  0  0  0  0  0  0  0  0999 V2000
   -3.9310    0.2642    0.0200 C   0  0  0  0  0  0  0  0  0  0  0  0
   -2.7180   -0.5907    0.0669 C   0  0  0  0  0  0  0  0  0  0  0  0
   -4.8864   -0.4399   -0.0069 H   0  0  0  0  0  0  0  0  0  0  0  0
   -3.8327    0.8567   -0.8496 H   0  0  0  0  0  0  0  0  0  0  0  0
   -3.9741    0.9007    0.8468 H   0  0  0  0  0  0  0  0  0  0  0  0
   -1.4005    0.2005   -0.0185 C   0  0  0  0  0  0  0  0  0  0  0  0
   -2.7309   -1.3099   -0.8398 H   0  0  0  0  0  0  0  0  0  0  0  0
   -2.7116   -1.2866    0.9789 H   0  0  0  0  0  0  0  0  0  0  0  0
   -0.1604   -0.7102    0.0401 C   0  0  0  0  0  0  0  0  0  0  0  0
   -1.4138    0.8517    0.8507 H   0  0  0  0  0  0  0  0  0  0  0  0
   -1.4293    0.8346   -0.9295 H   0  0  0  0  0  0  0  0  0  0  0  0
   -0.1891   -1.1522    0.8441 H   0  0  0  0  0  0  0  0  0  0  0  0
    0.7391   -0.1433    0.1292 H   0  0  0  0  0  0  0  0  0  0  0  0
   -0.0732   -1.5544   -0.9035 H   0  0  0  0  0  0  0  0  0  0  0  0
  1  2  1  0  0  0  0
  1  5  1  0  0  0  0
  2  8  1  0  0  0  0
  3  1  1  0  0  0  0
  4  1  1  0  0  0  0
  6  9  1  0  0  0  0
  6  2  1  0  0  0  0
  6 10  1  0  0  0  0
  7  2  1  0  0  0  0
  9 13  1  0  0  0  0
  9 12  1  0  0  0  0
 11  6  1  0  0  0  0
 14  9  1  0  0  0  0
M  END
$$$$
