14
butane_opt
C  -3.925574   0.257765   0.004974
C  -2.691775  -0.612689   0.059194
H  -4.907964  -0.412181   0.118729
H  -3.896524   0.906667  -0.927094
H  -3.885223   0.952733   0.887169
C  -1.416667   0.198715  -0.007877
H  -2.742118  -1.290814  -0.777683
H  -2.658033  -1.274362   0.998009
C  -0.168742  -0.688378   0.017235
H  -1.386457   0.898483   0.898276
H  -1.489263   0.807598  -0.899254
H  -0.267380  -1.243626   0.869248
H   0.680644  -0.172298   0.254035
H  -0.031821  -1.517295  -0.872501
