butane_opt
 OpenBabel08242015423D

 14 13  0  0  0  0  0  0  0  0999 V2000
   -3.9298    0.2604    0.0658 C   0  0  0  0  0  0  0  0  0  0  0  0
   -2.6825   -0.6245   -0.0146 C   0  0  0  0  0  0  0  0  0  0  0  0
   -4.9066   -0.3237    0.0166 H   0  0  0  0  0  0  0  0  0  0  0  0
   -4.0122    0.8822   -0.8369 H   0  0  0  0  0  0  0  0  0  0  0  0
   -3.9267    0.9796    0.9732 H   0  0  0  0  0  0  0  0  0  0  0  0
   -1.4129    0.1916   -0.0074 C   0  0  0  0  0  0  0  0  0  0  0  0
   -2.6722   -1.4127   -0.9306 H   0  0  0  0  0  0  0  0  0  0  0  0
   -2.6057   -1.1222    0.7593 H   0  0  0  0  0  0  0  0  0  0  0  0
   -0.1768   -0.6916    0.0692 C   0  0  0  0  0  0  0  0  0  0  0  0
   -1.3538    0.8052    0.7493 H   0  0  0  0  0  0  0  0  0  0  0  0
   -1.4217    0.8422   -0.9383 H   0  0  0  0  0  0  0  0  0  0  0  0
   -0.1872   -1.5054    1.0958 H   0  0  0  0  0  0  0  0  0  0  0  0
    0.7299   -0.0989   -0.1019 H   0  0  0  0  0  0  0  0  0  0  0  0
   -0.2248   -1.1551   -0.6736 H   0  0  0  0  0  0  0  0  0  0  0  0
  1  5  1  0  0  0  0
  2  6  1  0  0  0  0
  2  1  1  0  0  0  0
  2  8  1  0  0  0  0
  3  1  1  0  0  0  0
  4  1  1  0  0  0  0
  6  9  1  0  0  0  0
  6 10  1  0  0  0  0
  7  2  1  0  0  0  0
  9 12  1  0  0  0  0
 11  6  1  0  0  0  0
 13  9  1  0  0  0  0
 14  9  1  0  0  0  0
M  END
$$$$
