14
butane_opt
C  -3.932881   0.229756   0.068600
C  -2.709744  -0.575510   0.014587
H  -4.859799  -0.331310  -0.117219
H  -3.926285   0.730029  -0.768426
H  -3.891804   1.028732   1.002448
C  -1.418690   0.210189  -0.054554
H  -2.689197  -1.278101  -0.889215
H  -2.711211  -1.259787   0.900897
C  -0.143516  -0.723325   0.064698
H  -1.437654   0.872745   0.756343
H  -1.474358   0.858371  -0.930571
H  -0.267736  -1.363365   0.978137
H   0.753796  -0.115812   0.116597
H  -0.043269  -1.315320  -0.710501
