14
butane_opt
C  -3.942521   0.267465  -0.042272
C  -2.695237  -0.600933   0.114573
H  -4.876725  -0.363668  -0.176398
H  -3.790687   0.851275  -0.927361
H  -4.028033   1.030669   0.857380
C  -1.393784   0.160734   0.071902
H  -2.695210  -1.273455  -0.735982
H  -2.714008  -1.315226   1.075262
C  -0.179625  -0.681767  -0.015609
H  -1.398562   0.855707   0.880212
H  -1.422739   0.805889  -0.836988
H  -0.073284  -1.251874   0.845621
H   0.767864  -0.089813  -0.151239
H  -0.263009  -1.465542  -0.942946
