butane_opt
 OpenBabel08242015423D

 14 13  0  0  0  0  0  0  0  0999 V2000
   -3.9329    0.2298    0.0686 C   0  0  0  0  0  0  0  0  0  0  0  0
   -2.7097   -0.5755    0.0146 C   0  0  0  0  0  0  0  0  0  0  0  0
   -4.8598   -0.3313   -0.1172 H   0  0  0  0  0  0  0  0  0  0  0  0
   -3.9263    0.7300   -0.7684 H   0  0  0  0  0  0  0  0  0  0  0  0
   -3.8918    1.0287    1.0024 H   0  0  0  0  0  0  0  0  0  0  0  0
   -1.4187    0.2102   -0.0546 C   0  0  0  0  0  0  0  0  0  0  0  0
   -2.6892   -1.2781   -0.8892 H   0  0  0  0  0  0  0  0  0  0  0  0
   -2.7112   -1.2598    0.9009 H   0  0  0  0  0  0  0  0  0  0  0  0
   -0.1435   -0.7233    0.0647 C   0  0  0  0  0  0  0  0  0  0  0  0
   -1.4377    0.8727    0.7563 H   0  0  0  0  0  0  0  0  0  0  0  0
   -1.4744    0.8584   -0.9306 H   0  0  0  0  0  0  0  0  0  0  0  0
   -0.2677   -1.3634    0.9781 H   0  0  0  0  0  0  0  0  0  0  0  0
    0.7538   -0.1158    0.1166 H   0  0  0  0  0  0  0  0  0  0  0  0
   -0.0433   -1.3153   -0.7105 H   0  0  0  0  0  0  0  0  0  0  0  0
  1  5  1  0  0  0  0
  2  1  1  0  0  0  0
  2  8  1  0  0  0  0
  3  1  1  0  0  0  0
  4  1  1  0  0  0  0
  6  2  1  0  0  0  0
  6  9  1  0  0  0  0
  6 10  1  0  0  0  0
  7  2  1  0  0  0  0
  9 13  1  0  0  0  0
  9 12  1  0  0  0  0
 11  6  1  0  0  0  0
 14  9  1  0  0  0  0
M  END
$$$$
