14
butane_opt
C  -3.947560   0.243063   0.039081
C  -2.706390  -0.607722  -0.001381
H  -4.845392  -0.318641   0.012165
H  -3.981516   0.820283  -0.874053
H  -3.995507   0.911642   0.898251
C  -1.414777   0.219860   0.025137
H  -2.788021  -1.356768  -0.892049
H  -2.713848  -1.180991   0.856178
C  -0.140444  -0.720887   0.059539
H  -1.390838   0.922574   0.870212
H  -1.407634   0.943558  -0.912234
H   0.034626  -1.470245   1.021469
H   0.749760  -0.126469  -0.287810
H  -0.168345  -1.231207  -0.709833
