14
butane_opt
C  -3.929235   0.241753   0.044783
C  -2.702838  -0.606380   0.018544
H  -4.827437  -0.335752  -0.163801
H  -3.870806   0.649379  -0.697120
H  -4.012035   1.224877   1.131782
C  -1.399578   0.209542  -0.034407
H  -2.711440  -1.245941  -0.773633
H  -2.831098  -1.237371   0.885240
C  -0.163422  -0.706770   0.063252
H  -1.455700   0.828649   0.734357
H  -1.429877   0.879307  -0.991845
H  -0.159605  -1.449617   0.998070
H   0.720415  -0.156065  -0.031548
H  -0.099444  -1.288245  -0.709170
