14
butane_opt
C  -3.929759   0.260422   0.065785
C  -2.682518  -0.624484  -0.014601
H  -4.906636  -0.323706   0.016614
H  -4.012202   0.882182  -0.836869
H  -3.926733   0.979615   0.973187
C  -1.412874   0.191591  -0.007363
H  -2.672241  -1.412734  -0.930637
H  -2.605668  -1.122244   0.759253
C  -0.176803  -0.691561   0.069166
H  -1.353804   0.805150   0.749255
H  -1.421707   0.842232  -0.938254
H  -0.187233  -1.505397   1.095834
H   0.729859  -0.098926  -0.101893
H  -0.224803  -1.155137  -0.673590
