14
butane_opt
C  -3.931049   0.264233   0.019954
C  -2.717959  -0.590695   0.066943
H  -4.886352  -0.439936  -0.006914
H  -3.832742   0.856737  -0.849584
H  -3.974072   0.900743   0.846817
C  -1.400476   0.200520  -0.018481
H  -2.730919  -1.309942  -0.839761
H  -2.711582  -1.286574   0.978937
C  -0.160376  -0.710163   0.040110
H  -1.413824   0.851739   0.850714
H  -1.429309   0.834635  -0.929468
H  -0.189144  -1.152221   0.844133
H   0.739081  -0.143347   0.129195
H  -0.073189  -1.554438  -0.903524
