14
butane_opt
C  -3.971206   0.274054  -0.019637
C  -2.684559  -0.656336   0.112112
H  -4.786321  -0.220844   0.046752
H  -3.979294   1.012066  -0.965944
H  -4.082581   0.892413   0.826370
C  -1.401170   0.183485   0.012377
H  -2.653317  -1.296149  -0.701285
H  -2.752322  -1.269131   0.948979
C  -0.157881  -0.678281  -0.006103
H  -1.289766   0.865650   0.884142
H  -1.404594   0.792177  -0.856693
H  -0.253196  -1.084569   0.772934
H   0.838726  -0.064782   0.302064
H  -0.093758  -1.562189  -1.018438
