14
butane_opt
C  -3.948105   0.283030   0.047883
C  -2.705565  -0.636984   0.027201
H  -4.847566  -0.287624  -0.060556
H  -3.973227   0.771550  -0.773960
H  -4.038814   1.025980   0.938648
C  -1.401328   0.179597  -0.033974
H  -2.756379  -1.360192  -0.888049
H  -2.678166  -1.231395   0.908042
C  -0.155598  -0.688931   0.062680
H  -1.375577   0.827328   0.810018
H  -1.320614   0.850859  -0.948678
H  -0.181050  -1.318204   0.989892
H   0.788019  -0.069102   0.007984
H  -0.116997  -1.322517  -0.781964
