14
butane_opt
C  -3.958744   0.271690  -0.018540
C  -2.694194  -0.650038   0.100566
H  -4.813967  -0.217950  -0.226852
H  -3.906283   0.875927  -0.914459
H  -4.155405   0.993269   0.833554
C  -1.396362   0.190456   0.062288
H  -2.638931  -1.276344  -0.708475
H  -2.763567  -1.297137   0.995370
C  -0.160592  -0.687477  -0.012037
H  -1.371001   0.853888   0.865068
H  -1.382868   0.806871  -0.821256
H  -0.042984  -1.277981   0.849920
H   0.815587  -0.002715  -0.138700
H  -0.254842  -1.415653  -0.885231
