butane_opt
 OpenBabel08242015423D

 14 13  0  0  0  0  0  0  0  0999 V2000
   -3.9712    0.2741   -0.0196 C   0  0  0  0  0  0  0  0  0  0  0  0
   -2.6846   -0.6563    0.1121 C   0  0  0  0  0  0  0  0  0  0  0  0
   -4.7863   -0.2208    0.0468 H   0  0  0  0  0  0  0  0  0  0  0  0
   -3.9793    1.0121   -0.9659 H   0  0  0  0  0  0  0  0  0  0  0  0
   -4.0826    0.8924    0.8264 H   0  0  0  0  0  0  0  0  0  0  0  0
   -1.4012    0.1835    0.0124 C   0  0  0  0  0  0  0  0  0  0  0  0
   -2.6533   -1.2961   -0.7013 H   0  0  0  0  0  0  0  0  0  0  0  0
   -2.7523   -1.2691    0.9490 H   0  0  0  0  0  0  0  0  0  0  0  0
   -0.1579   -0.6783   -0.0061 C   0  0  0  0  0  0  0  0  0  0  0  0
   -1.2898    0.8657    0.8841 H   0  0  0  0  0  0  0  0  0  0  0  0
   -1.4046    0.7922   -0.8567 H   0  0  0  0  0  0  0  0  0  0  0  0
   -0.2532   -1.0846    0.7729 H   0  0  0  0  0  0  0  0  0  0  0  0
    0.8387   -0.0648    0.3021 H   0  0  0  0  0  0  0  0  0  0  0  0
   -0.0938   -1.5622   -1.0184 H   0  0  0  0  0  0  0  0  0  0  0  0
  1  3  1  0  0  0  0
  1  2  1  0  0  0  0
  1  5  1  0  0  0  0
  2  8  1  0  0  0  0
  4  1  1  0  0  0  0
  6  2  1  0  0  0  0
  6 10  1  0  0  0  0
  7  2  1  0  0  0  0
  9  6  1  0  0  0  0
  9 13  1  0  0  0  0
  9 12  1  0  0  0  0
 11  6  1  0  0  0  0
 14  9  1  0  0  0  0
M  END
$$$$
