butane_opt
 OpenBabel08242015423D

 14 13  0  0  0  0  0  0  0  0999 V2000
   -3.9453    0.2425    0.0837 C   0  0  0  0  0  0  0  0  0  0  0  0
   -2.7148   -0.5828   -0.0510 C   0  0  0  0  0  0  0  0  0  0  0  0
   -4.8663   -0.3540    0.2443 H   0  0  0  0  0  0  0  0  0  0  0  0
   -4.0729    0.9488   -0.8616 H   0  0  0  0  0  0  0  0  0  0  0  0
   -3.8714    0.8076    0.8841 H   0  0  0  0  0  0  0  0  0  0  0  0
   -1.3973    0.1993   -0.0416 C   0  0  0  0  0  0  0  0  0  0  0  0
   -2.8170   -1.3109   -0.9367 H   0  0  0  0  0  0  0  0  0  0  0  0
   -2.6891   -1.1997    0.8205 H   0  0  0  0  0  0  0  0  0  0  0  0
   -0.1321   -0.7093    0.0936 C   0  0  0  0  0  0  0  0  0  0  0  0
   -1.4690    0.8872    0.8049 H   0  0  0  0  0  0  0  0  0  0  0  0
   -1.4294    0.8057   -0.8634 H   0  0  0  0  0  0  0  0  0  0  0  0
   -0.1955   -1.4054    1.0290 H   0  0  0  0  0  0  0  0  0  0  0  0
    0.7010   -0.1286    0.0196 H   0  0  0  0  0  0  0  0  0  0  0  0
   -0.0276   -1.3225   -0.7279 H   0  0  0  0  0  0  0  0  0  0  0  0
  1  3  1  0  0  0  0
  1  5  1  0  0  0  0
  2  6  1  0  0  0  0
  2  1  1  0  0  0  0
  2  8  1  0  0  0  0
  4  1  1  0  0  0  0
  6  9  1  0  0  0  0
  6 10  1  0  0  0  0
  7  2  1  0  0  0  0
  9 12  1  0  0  0  0
 11  6  1  0  0  0  0
 13  9  1  0  0  0  0
 14  9  1  0  0  0  0
M  END
$$$$
