butane_opt
 OpenBabel08242015423D

 14 13  0  0  0  0  0  0  0  0999 V2000
   -3.9357    0.2425    0.0099 C   0  0  0  0  0  0  0  0  0  0  0  0
   -2.7043   -0.5991    0.0771 C   0  0  0  0  0  0  0  0  0  0  0  0
   -4.8692   -0.3865   -0.2946 H   0  0  0  0  0  0  0  0  0  0  0  0
   -3.8854    0.7230   -0.8119 H   0  0  0  0  0  0  0  0  0  0  0  0
   -4.1058    1.0991    0.9258 H   0  0  0  0  0  0  0  0  0  0  0  0
   -1.4157    0.2032    0.0198 C   0  0  0  0  0  0  0  0  0  0  0  0
   -2.6619   -1.2259   -0.7115 H   0  0  0  0  0  0  0  0  0  0  0  0
   -2.7698   -1.2712    0.9851 H   0  0  0  0  0  0  0  0  0  0  0  0
   -0.1561   -0.7036    0.0176 C   0  0  0  0  0  0  0  0  0  0  0  0
   -1.3835    0.8545    0.8625 H   0  0  0  0  0  0  0  0  0  0  0  0
   -1.3387    0.9365   -0.9451 H   0  0  0  0  0  0  0  0  0  0  0  0
   -0.0243   -1.3484    0.8918 H   0  0  0  0  0  0  0  0  0  0  0  0
    0.7306   -0.1716   -0.0571 H   0  0  0  0  0  0  0  0  0  0  0  0
   -0.1599   -1.4174   -0.8856 H   0  0  0  0  0  0  0  0  0  0  0  0
  1  2  1  0  0  0  0
  1  5  1  0  0  0  0
  2  8  1  0  0  0  0
  3  1  1  0  0  0  0
  4  1  1  0  0  0  0
  6  2  1  0  0  0  0
  6 10  1  0  0  0  0
  7  2  1  0  0  0  0
  9  6  1  0  0  0  0
  9 12  1  0  0  0  0
 11  6  1  0  0  0  0
 13  9  1  0  0  0  0
 14  9  1  0  0  0  0
M  END
$$$$
