butane_opt
 OpenBabel08242015423D

 14 13  0  0  0  0  0  0  0  0999 V2000
   -3.9463    0.2562   -0.0313 C   0  0  0  0  0  0  0  0  0  0  0  0
   -2.7144   -0.6154    0.0594 C   0  0  0  0  0  0  0  0  0  0  0  0
   -4.8500   -0.2867    0.2196 H   0  0  0  0  0  0  0  0  0  0  0  0
   -4.0230    1.0239   -1.0202 H   0  0  0  0  0  0  0  0  0  0  0  0
   -3.8814    0.8202    0.7702 H   0  0  0  0  0  0  0  0  0  0  0  0
   -1.3998    0.1996    0.0643 C   0  0  0  0  0  0  0  0  0  0  0  0
   -2.7308   -1.2441   -0.8134 H   0  0  0  0  0  0  0  0  0  0  0  0
   -2.8441   -1.2919    0.9993 H   0  0  0  0  0  0  0  0  0  0  0  0
   -0.1433   -0.6935   -0.0052 C   0  0  0  0  0  0  0  0  0  0  0  0
   -1.3194    0.9402    0.9769 H   0  0  0  0  0  0  0  0  0  0  0  0
   -1.4832    0.6886   -0.7072 H   0  0  0  0  0  0  0  0  0  0  0  0
   -0.0135   -1.3429    0.9044 H   0  0  0  0  0  0  0  0  0  0  0  0
    0.7127   -0.1319   -0.0785 H   0  0  0  0  0  0  0  0  0  0  0  0
   -0.1526   -1.4009   -0.8607 H   0  0  0  0  0  0  0  0  0  0  0  0
  1  2  1  0  0  0  0
  1  3  1  0  0  0  0
  1  5  1  0  0  0  0
  2  6  1  0  0  0  0
  2  8  1  0  0  0  0
  4  1  1  0  0  0  0
  6 10  1  0  0  0  0
  7  2  1  0  0  0  0
  9  6  1  0  0  0  0
  9 12  1  0  0  0  0
 11  6  1  0  0  0  0
 13  9  1  0  0  0  0
 14  9  1  0  0  0  0
M  END
$$$$
