14
butane_opt
C  -3.946263   0.256212  -0.031314
C  -2.714408  -0.615444   0.059351
H  -4.849962  -0.286705   0.219649
H  -4.023012   1.023940  -1.020163
H  -3.881410   0.820162   0.770159
C  -1.399825   0.199568   0.064334
H  -2.730799  -1.244064  -0.813421
H  -2.844085  -1.291905   0.999305
C  -0.143255  -0.693457  -0.005236
H  -1.319387   0.940202   0.976875
H  -1.483163   0.688606  -0.707236
H  -0.013456  -1.342859   0.904422
H   0.712742  -0.131898  -0.078499
H  -0.152635  -1.400917  -0.860714
