butane_opt
 OpenBabel08242015423D

 14 13  0  0  0  0  0  0  0  0999 V2000
   -3.9587    0.2717   -0.0185 C   0  0  0  0  0  0  0  0  0  0  0  0
   -2.6942   -0.6500    0.1006 C   0  0  0  0  0  0  0  0  0  0  0  0
   -4.8140   -0.2180   -0.2269 H   0  0  0  0  0  0  0  0  0  0  0  0
   -3.9063    0.8759   -0.9145 H   0  0  0  0  0  0  0  0  0  0  0  0
   -4.1554    0.9933    0.8336 H   0  0  0  0  0  0  0  0  0  0  0  0
   -1.3964    0.1905    0.0623 C   0  0  0  0  0  0  0  0  0  0  0  0
   -2.6389   -1.2763   -0.7085 H   0  0  0  0  0  0  0  0  0  0  0  0
   -2.7636   -1.2971    0.9954 H   0  0  0  0  0  0  0  0  0  0  0  0
   -0.1606   -0.6875   -0.0120 C   0  0  0  0  0  0  0  0  0  0  0  0
   -1.3710    0.8539    0.8651 H   0  0  0  0  0  0  0  0  0  0  0  0
   -1.3829    0.8069   -0.8213 H   0  0  0  0  0  0  0  0  0  0  0  0
   -0.0430   -1.2780    0.8499 H   0  0  0  0  0  0  0  0  0  0  0  0
    0.8156   -0.0027   -0.1387 H   0  0  0  0  0  0  0  0  0  0  0  0
   -0.2548   -1.4157   -0.8852 H   0  0  0  0  0  0  0  0  0  0  0  0
  1  2  1  0  0  0  0
  1  5  1  0  0  0  0
  2  8  1  0  0  0  0
  3  1  1  0  0  0  0
  4  1  1  0  0  0  0
  6  2  1  0  0  0  0
  6 10  1  0  0  0  0
  7  2  1  0  0  0  0
  9  6  1  0  0  0  0
  9 12  1  0  0  0  0
 11  6  1  0  0  0  0
 13  9  1  0  0  0  0
 14  9  1  0  0  0  0
M  END
$$$$
