butane_opt
 OpenBabel08242015423D

 14 13  0  0  0  0  0  0  0  0999 V2000
   -3.9588    0.2944   -0.0283 C   0  0  0  0  0  0  0  0  0  0  0  0
   -2.6805   -0.6564    0.0739 C   0  0  0  0  0  0  0  0  0  0  0  0
   -4.8618   -0.3424    0.2117 H   0  0  0  0  0  0  0  0  0  0  0  0
   -4.0694    1.1363   -1.0532 H   0  0  0  0  0  0  0  0  0  0  0  0
   -4.0205    0.7670    0.6916 H   0  0  0  0  0  0  0  0  0  0  0  0
   -1.3840    0.1754    0.0786 C   0  0  0  0  0  0  0  0  0  0  0  0
   -2.7161   -1.3344   -0.8037 H   0  0  0  0  0  0  0  0  0  0  0  0
   -2.7204   -1.2839    1.0043 H   0  0  0  0  0  0  0  0  0  0  0  0
   -0.1737   -0.6741   -0.0136 C   0  0  0  0  0  0  0  0  0  0  0  0
   -1.2897    0.8867    0.9361 H   0  0  0  0  0  0  0  0  0  0  0  0
   -1.3993    0.7701   -0.8062 H   0  0  0  0  0  0  0  0  0  0  0  0
   -0.1827   -1.1766    0.8286 H   0  0  0  0  0  0  0  0  0  0  0  0
    0.7625   -0.0624    0.0287 H   0  0  0  0  0  0  0  0  0  0  0  0
   -0.1596   -1.4999   -0.9612 H   0  0  0  0  0  0  0  0  0  0  0  0
  1  2  1  0  0  0  0
  1  3  1  0  0  0  0
  1  5  1  0  0  0  0
  2  6  1  0  0  0  0
  2  8  1  0  0  0  0
  4  1  1  0  0  0  0
  6 10  1  0  0  0  0
  7  2  1  0  0  0  0
  9 13  1  0  0  0  0
  9  6  1  0  0  0  0
  9 12  1  0  0  0  0
 11  6  1  0  0  0  0
 14  9  1  0  0  0  0
M  END
$$$$
