14
butane_opt
C  -3.944295   0.271699  -0.011583
C  -2.692330  -0.622805   0.080915
H  -4.834127  -0.279353   0.062047
H  -3.926850   0.976773  -0.979822
H  -4.014514   0.886065   0.831996
C  -1.402814   0.163837   0.028783
H  -2.727548  -1.309465  -0.774485
H  -2.680008  -1.262947   1.003979
C  -0.167773  -0.676642   0.004617
H  -1.389053   0.827492   0.876732
H  -1.434607   0.771866  -0.839496
H  -0.187643  -1.172353   0.815166
H   0.784133  -0.051197   0.137132
H  -0.136866  -1.479906  -0.946554
