14
butane_opt
C  -3.917037   0.256760   0.082739
C  -2.701661  -0.605740  -0.025323
H  -4.778989  -0.291637   0.109874
H  -4.032611   0.793745  -0.744997
H  -3.902621   0.925882   0.971289
C  -1.395272   0.191956  -0.076279
H  -2.783509  -1.261393  -0.870930
H  -2.697047  -1.205081   0.904236
C  -0.192200  -0.700353   0.091247
H  -1.423380   0.830001   0.741366
H  -1.463579   0.854492  -0.993383
H  -0.347826  -1.284977   0.959686
H   0.761609  -0.084203   0.249671
H   0.110107  -1.456538  -0.761205
