14
butane_opt
C  -3.966566   0.284467   0.058767
C  -2.702319  -0.642434   0.005324
H  -4.815133  -0.262505  -0.184874
H  -3.946862   0.644571  -0.680365
H  -4.023750   1.203466   1.119371
C  -1.396236   0.167009  -0.059445
H  -2.777623  -1.326928  -0.818687
H  -2.686711  -1.282219   0.934496
C  -0.145851  -0.674095   0.076953
H  -1.506144   0.815051   0.788398
H  -1.318228   0.838436  -1.017799
H  -0.104257  -1.419271   1.073422
H   0.825201  -0.027900   0.012310
H  -0.167166  -1.255451  -0.736882
