butane_opt
 OpenBabel08242015423D

 14 13  0  0  0  0  0  0  0  0999 V2000
   -3.9462    0.2451   -0.0051 C   0  0  0  0  0  0  0  0  0  0  0  0
   -2.7217   -0.6045    0.0813 C   0  0  0  0  0  0  0  0  0  0  0  0
   -4.8855   -0.3518   -0.1315 H   0  0  0  0  0  0  0  0  0  0  0  0
   -3.8332    0.8013   -0.8801 H   0  0  0  0  0  0  0  0  0  0  0  0
   -4.0845    0.9726    0.8746 H   0  0  0  0  0  0  0  0  0  0  0  0
   -1.3957    0.2332    0.0362 C   0  0  0  0  0  0  0  0  0  0  0  0
   -2.7786   -1.2691   -0.8227 H   0  0  0  0  0  0  0  0  0  0  0  0
   -2.6907   -1.2786    0.9880 H   0  0  0  0  0  0  0  0  0  0  0  0
   -0.1559   -0.7220    0.0074 C   0  0  0  0  0  0  0  0  0  0  0  0
   -1.3568    0.9284    0.8976 H   0  0  0  0  0  0  0  0  0  0  0  0
   -1.3906    0.8538   -0.8616 H   0  0  0  0  0  0  0  0  0  0  0  0
   -0.0461   -1.4231    0.9023 H   0  0  0  0  0  0  0  0  0  0  0  0
    0.7451   -0.1168   -0.1021 H   0  0  0  0  0  0  0  0  0  0  0  0
   -0.0625   -1.4198   -0.8601 H   0  0  0  0  0  0  0  0  0  0  0  0
  1  2  1  0  0  0  0
  1  5  1  0  0  0  0
  2  8  1  0  0  0  0
  3  1  1  0  0  0  0
  4  1  1  0  0  0  0
  6  2  1  0  0  0  0
  6 10  1  0  0  0  0
  7  2  1  0  0  0  0
  9  6  1  0  0  0  0
  9 12  1  0  0  0  0
 11  6  1  0  0  0  0
 13  9  1  0  0  0  0
 14  9  1  0  0  0  0
M  END
$$$$
