14
butane_opt
C  -3.960910   0.267626   0.077203
C  -2.690882  -0.647944  -0.001481
H  -4.854003  -0.289314   0.012457
H  -4.156723   0.858435  -0.782428
H  -3.988899   1.122801   1.008051
C  -1.402452   0.184533  -0.075714
H  -2.767719  -1.352941  -0.897530
H  -2.649888  -1.255055   0.905071
C  -0.142766  -0.687188   0.098093
H  -1.439393   0.792239   0.714091
H  -1.241616   0.915977  -1.053497
H  -0.243003  -1.190636   0.929253
H   0.785822  -0.065464   0.230254
H  -0.086426  -1.423120  -0.811802
