14
butane_opt
C  -3.927814   0.257098   0.073590
C  -2.694157  -0.615766  -0.035610
H  -4.932087  -0.425421   0.189553
H  -4.093345   0.869075  -0.806342
H  -3.788619   0.954642   0.925390
C  -1.425790   0.210799  -0.044303
H  -2.787918  -1.303038  -0.903184
H  -2.639485  -1.217172   0.826136
C  -0.159156  -0.704584   0.079129
H  -1.427928   0.869468   0.804757
H  -1.395809   0.824720  -0.959712
H  -0.182007  -1.392475   1.062463
H   0.717893  -0.158794   0.143130
H  -0.003678  -1.274220  -0.708534
