butane_opt
 OpenBabel08242015423D

 14 13  0  0  0  0  0  0  0  0999 V2000
   -3.9184    0.2758    0.0043 C   0  0  0  0  0  0  0  0  0  0  0  0
   -2.6883   -0.6187    0.0666 C   0  0  0  0  0  0  0  0  0  0  0  0
   -4.8833   -0.4068   -0.1176 H   0  0  0  0  0  0  0  0  0  0  0  0
   -3.8229    0.7680   -0.8303 H   0  0  0  0  0  0  0  0  0  0  0  0
   -4.0477    1.0506    0.9317 H   0  0  0  0  0  0  0  0  0  0  0  0
   -1.4082    0.1974    0.0065 C   0  0  0  0  0  0  0  0  0  0  0  0
   -2.7165   -1.2493   -0.7651 H   0  0  0  0  0  0  0  0  0  0  0  0
   -2.7458   -1.3788    1.0215 H   0  0  0  0  0  0  0  0  0  0  0  0
   -0.1876   -0.6924    0.0170 C   0  0  0  0  0  0  0  0  0  0  0  0
   -1.3806    0.8488    0.8763 H   0  0  0  0  0  0  0  0  0  0  0  0
   -1.4336    0.7967   -0.8864 H   0  0  0  0  0  0  0  0  0  0  0  0
   -0.1359   -1.3006    0.9141 H   0  0  0  0  0  0  0  0  0  0  0  0
    0.7264   -0.0919    0.0367 H   0  0  0  0  0  0  0  0  0  0  0  0
   -0.1586   -1.4510   -0.8601 H   0  0  0  0  0  0  0  0  0  0  0  0
  1  2  1  0  0  0  0
  1  5  1  0  0  0  0
  2  8  1  0  0  0  0
  3  1  1  0  0  0  0
  4  1  1  0  0  0  0
  6  9  1  0  0  0  0
  6  2  1  0  0  0  0
  6 10  1  0  0  0  0
  7  2  1  0  0  0  0
  9 13  1  0  0  0  0
  9 12  1  0  0  0  0
 11  6  1  0  0  0  0
 14  9  1  0  0  0  0
M  END
$$$$
