butane_opt
 OpenBabel08242015423D

 14 13  0  0  0  0  0  0  0  0999 V2000
   -3.9473    0.2581    0.0638 C   0  0  0  0  0  0  0  0  0  0  0  0
   -2.7112   -0.6005   -0.0133 C   0  0  0  0  0  0  0  0  0  0  0  0
   -4.8699   -0.3740    0.1362 H   0  0  0  0  0  0  0  0  0  0  0  0
   -4.0139    0.9101   -0.8720 H   0  0  0  0  0  0  0  0  0  0  0  0
   -3.9145    0.8889    0.9044 H   0  0  0  0  0  0  0  0  0  0  0  0
   -1.3994    0.1941   -0.0312 C   0  0  0  0  0  0  0  0  0  0  0  0
   -2.7555   -1.3013   -0.8761 H   0  0  0  0  0  0  0  0  0  0  0  0
   -2.6470   -1.2170    0.8690 H   0  0  0  0  0  0  0  0  0  0  0  0
   -0.1517   -0.7021    0.0745 C   0  0  0  0  0  0  0  0  0  0  0  0
   -1.3873    0.8557    0.7879 H   0  0  0  0  0  0  0  0  0  0  0  0
   -1.3612    0.8064   -0.9054 H   0  0  0  0  0  0  0  0  0  0  0  0
   -0.2174   -1.3288    0.9676 H   0  0  0  0  0  0  0  0  0  0  0  0
    0.7329   -0.1246    0.0720 H   0  0  0  0  0  0  0  0  0  0  0  0
   -0.0625   -1.3852   -0.7795 H   0  0  0  0  0  0  0  0  0  0  0  0
  1  3  1  0  0  0  0
  1  5  1  0  0  0  0
  2  1  1  0  0  0  0
  2  8  1  0  0  0  0
  4  1  1  0  0  0  0
  6  2  1  0  0  0  0
  6  9  1  0  0  0  0
  6 10  1  0  0  0  0
  7  2  1  0  0  0  0
  9 12  1  0  0  0  0
 11  6  1  0  0  0  0
 13  9  1  0  0  0  0
 14  9  1  0  0  0  0
M  END
$$$$
