butane_opt
 OpenBabel08242015423D

 14 13  0  0  0  0  0  0  0  0999 V2000
   -3.9609    0.2676    0.0772 C   0  0  0  0  0  0  0  0  0  0  0  0
   -2.6909   -0.6479   -0.0015 C   0  0  0  0  0  0  0  0  0  0  0  0
   -4.8540   -0.2893    0.0125 H   0  0  0  0  0  0  0  0  0  0  0  0
   -4.1567    0.8584   -0.7824 H   0  0  0  0  0  0  0  0  0  0  0  0
   -3.9889    1.1228    1.0081 H   0  0  0  0  0  0  0  0  0  0  0  0
   -1.4025    0.1845   -0.0757 C   0  0  0  0  0  0  0  0  0  0  0  0
   -2.7677   -1.3529   -0.8975 H   0  0  0  0  0  0  0  0  0  0  0  0
   -2.6499   -1.2551    0.9051 H   0  0  0  0  0  0  0  0  0  0  0  0
   -0.1428   -0.6872    0.0981 C   0  0  0  0  0  0  0  0  0  0  0  0
   -1.4394    0.7922    0.7141 H   0  0  0  0  0  0  0  0  0  0  0  0
   -1.2416    0.9160   -1.0535 H   0  0  0  0  0  0  0  0  0  0  0  0
   -0.2430   -1.1906    0.9293 H   0  0  0  0  0  0  0  0  0  0  0  0
    0.7858   -0.0655    0.2303 H   0  0  0  0  0  0  0  0  0  0  0  0
   -0.0864   -1.4231   -0.8118 H   0  0  0  0  0  0  0  0  0  0  0  0
  1  5  1  0  0  0  0
  2  1  1  0  0  0  0
  2  8  1  0  0  0  0
  3  1  1  0  0  0  0
  4  1  1  0  0  0  0
  6  2  1  0  0  0  0
  6  9  1  0  0  0  0
  6 10  1  0  0  0  0
  7  2  1  0  0  0  0
  9 13  1  0  0  0  0
  9 12  1  0  0  0  0
 11  6  1  0  0  0  0
 14  9  1  0  0  0  0
M  END
$$$$
