butane_opt
 OpenBabel08242015423D

 14 13  0  0  0  0  0  0  0  0999 V2000
   -3.9170    0.2568    0.0827 C   0  0  0  0  0  0  0  0  0  0  0  0
   -2.7017   -0.6057   -0.0253 C   0  0  0  0  0  0  0  0  0  0  0  0
   -4.7790   -0.2916    0.1099 H   0  0  0  0  0  0  0  0  0  0  0  0
   -4.0326    0.7937   -0.7450 H   0  0  0  0  0  0  0  0  0  0  0  0
   -3.9026    0.9259    0.9713 H   0  0  0  0  0  0  0  0  0  0  0  0
   -1.3953    0.1920   -0.0763 C   0  0  0  0  0  0  0  0  0  0  0  0
   -2.7835   -1.2614   -0.8709 H   0  0  0  0  0  0  0  0  0  0  0  0
   -2.6970   -1.2051    0.9042 H   0  0  0  0  0  0  0  0  0  0  0  0
   -0.1922   -0.7004    0.0912 C   0  0  0  0  0  0  0  0  0  0  0  0
   -1.4234    0.8300    0.7414 H   0  0  0  0  0  0  0  0  0  0  0  0
   -1.4636    0.8545   -0.9934 H   0  0  0  0  0  0  0  0  0  0  0  0
   -0.3478   -1.2850    0.9597 H   0  0  0  0  0  0  0  0  0  0  0  0
    0.7616   -0.0842    0.2497 H   0  0  0  0  0  0  0  0  0  0  0  0
    0.1101   -1.4565   -0.7612 H   0  0  0  0  0  0  0  0  0  0  0  0
  1  3  1  0  0  0  0
  1  5  1  0  0  0  0
  2  1  1  0  0  0  0
  2  8  1  0  0  0  0
  4  1  1  0  0  0  0
  6  2  1  0  0  0  0
  6  9  1  0  0  0  0
  6 10  1  0  0  0  0
  7  2  1  0  0  0  0
  9 13  1  0  0  0  0
  9 12  1  0  0  0  0
 11  6  1  0  0  0  0
 14  9  1  0  0  0  0
M  END
$$$$
