14
butane_opt
C  -3.973779   0.278884   0.043559
C  -2.682901  -0.635223  -0.003166
H  -4.890040  -0.357674   0.117895
H  -4.056271   0.825050  -0.802330
H  -3.983173   1.090235   1.021913
C  -1.384598   0.168639  -0.018576
H  -2.661160  -1.372750  -0.889228
H  -2.732611  -1.214749   0.800404
C  -0.160929  -0.676978   0.074079
H  -1.427673   0.807770   0.795287
H  -1.361063   0.831167  -0.955961
H  -0.087544  -1.417984   1.023962
H   0.750654  -0.061724  -0.085092
H  -0.152009  -1.212697  -0.700050
