butane_opt
 OpenBabel08242015423D

 14 13  0  0  0  0  0  0  0  0999 V2000
   -3.9278    0.2571    0.0736 C   0  0  0  0  0  0  0  0  0  0  0  0
   -2.6942   -0.6158   -0.0356 C   0  0  0  0  0  0  0  0  0  0  0  0
   -4.9321   -0.4254    0.1896 H   0  0  0  0  0  0  0  0  0  0  0  0
   -4.0933    0.8691   -0.8063 H   0  0  0  0  0  0  0  0  0  0  0  0
   -3.7886    0.9546    0.9254 H   0  0  0  0  0  0  0  0  0  0  0  0
   -1.4258    0.2108   -0.0443 C   0  0  0  0  0  0  0  0  0  0  0  0
   -2.7879   -1.3030   -0.9032 H   0  0  0  0  0  0  0  0  0  0  0  0
   -2.6395   -1.2172    0.8261 H   0  0  0  0  0  0  0  0  0  0  0  0
   -0.1592   -0.7046    0.0791 C   0  0  0  0  0  0  0  0  0  0  0  0
   -1.4279    0.8695    0.8048 H   0  0  0  0  0  0  0  0  0  0  0  0
   -1.3958    0.8247   -0.9597 H   0  0  0  0  0  0  0  0  0  0  0  0
   -0.1820   -1.3925    1.0625 H   0  0  0  0  0  0  0  0  0  0  0  0
    0.7179   -0.1588    0.1431 H   0  0  0  0  0  0  0  0  0  0  0  0
   -0.0037   -1.2742   -0.7085 H   0  0  0  0  0  0  0  0  0  0  0  0
  1  3  1  0  0  0  0
  1  5  1  0  0  0  0
  2  1  1  0  0  0  0
  2  8  1  0  0  0  0
  4  1  1  0  0  0  0
  6  2  1  0  0  0  0
  6  9  1  0  0  0  0
  6 10  1  0  0  0  0
  7  2  1  0  0  0  0
  9 13  1  0  0  0  0
  9 12  1  0  0  0  0
 11  6  1  0  0  0  0
 14  9  1  0  0  0  0
M  END
$$$$
