14
butane_opt
C  -3.946242   0.245124  -0.005120
C  -2.721713  -0.604459   0.081298
H  -4.885537  -0.351813  -0.131517
H  -3.833244   0.801259  -0.880146
H  -4.084540   0.972580   0.874645
C  -1.395667   0.233205   0.036214
H  -2.778614  -1.269072  -0.822734
H  -2.690686  -1.278595   0.987978
C  -0.155880  -0.721976   0.007448
H  -1.356824   0.928389   0.897627
H  -1.390564   0.853830  -0.861631
H  -0.046086  -1.423146   0.902266
H   0.745137  -0.116807  -0.102098
H  -0.062536  -1.419757  -0.860106
