14
butane_opt
C  -3.952416   0.272069  -0.021566
C  -2.698175  -0.639156   0.094365
H  -4.847921  -0.249859  -0.003055
H  -3.921458   0.945574  -0.962413
H  -4.067367   0.831361   0.786609
C  -1.406099   0.198536   0.033974
H  -2.770970  -1.221786  -0.710588
H  -2.697292  -1.367694   1.093845
C  -0.151076  -0.692105  -0.017562
H  -1.362379   0.868245   0.895020
H  -1.460983   0.745559  -0.776921
H  -0.139495  -1.103958   0.731263
H   0.766561  -0.084206   0.251903
H  -0.038689  -1.500911  -0.963739
