14
butane_opt
C  -3.940536   0.280668  -0.012787
C  -2.666909  -0.638972   0.105753
H  -4.846538  -0.248454   0.050887
H  -3.933745   1.003303  -0.983951
H  -4.062426   0.825734   0.795434
C  -1.393234   0.163110   0.015540
H  -2.641850  -1.347431  -0.764940
H  -2.695080  -1.311122   1.013825
C  -0.203069  -0.676019  -0.001232
H  -1.395710   0.877180   0.855818
H  -1.439319   0.792996  -0.856696
H  -0.207332  -1.038150   0.723769
H   0.745270  -0.021346   0.294129
H  -0.110639  -1.545056  -0.999724
