butane_opt
 OpenBabel08242015423D

 14 13  0  0  0  0  0  0  0  0999 V2000
   -3.9289    0.2670    0.0028 C   0  0  0  0  0  0  0  0  0  0  0  0
   -2.7072   -0.6004    0.0724 C   0  0  0  0  0  0  0  0  0  0  0  0
   -4.8455   -0.3819    0.0525 H   0  0  0  0  0  0  0  0  0  0  0  0
   -3.8775    0.9626   -0.9871 H   0  0  0  0  0  0  0  0  0  0  0  0
   -3.9434    0.8311    0.7594 H   0  0  0  0  0  0  0  0  0  0  0  0
   -1.3990    0.1809    0.0203 C   0  0  0  0  0  0  0  0  0  0  0  0
   -2.7402   -1.2049   -0.7719 H   0  0  0  0  0  0  0  0  0  0  0  0
   -2.7326   -1.3716    1.0825 H   0  0  0  0  0  0  0  0  0  0  0  0
   -0.1662   -0.7079    0.0098 C   0  0  0  0  0  0  0  0  0  0  0  0
   -1.4118    0.9305    0.8926 H   0  0  0  0  0  0  0  0  0  0  0  0
   -1.4942    0.7868   -0.8622 H   0  0  0  0  0  0  0  0  0  0  0  0
   -0.2602   -1.0600    0.7333 H   0  0  0  0  0  0  0  0  0  0  0  0
    0.7684   -0.0673    0.1972 H   0  0  0  0  0  0  0  0  0  0  0  0
   -0.0698   -1.5736   -0.9552 H   0  0  0  0  0  0  0  0  0  0  0  0
  1  3  1  0  0  0  0
  1  2  1  0  0  0  0
  1  5  1  0  0  0  0
  2  8  1  0  0  0  0
  4  1  1  0  0  0  0
  6  2  1  0  0  0  0
  6 10  1  0  0  0  0
  7  2  1  0  0  0  0
  9  6  1  0  0  0  0
  9 13  1  0  0  0  0
  9 12  1  0  0  0  0
 11  6  1  0  0  0  0
 14  9  1  0  0  0  0
M  END
$$$$
