butane_opt
 OpenBabel08242015423D

 14 13  0  0  0  0  0  0  0  0999 V2000
   -3.9508    0.2561    0.0559 C   0  0  0  0  0  0  0  0  0  0  0  0
   -2.7334   -0.6080    0.0302 C   0  0  0  0  0  0  0  0  0  0  0  0
   -4.8518   -0.3925   -0.1579 H   0  0  0  0  0  0  0  0  0  0  0  0
   -3.7781    0.6724   -0.7272 H   0  0  0  0  0  0  0  0  0  0  0  0
   -4.0550    1.0886    1.0046 H   0  0  0  0  0  0  0  0  0  0  0  0
   -1.3990    0.2133   -0.0455 C   0  0  0  0  0  0  0  0  0  0  0  0
   -2.7147   -1.3812   -0.8723 H   0  0  0  0  0  0  0  0  0  0  0  0
   -2.6964   -1.1415    0.8465 H   0  0  0  0  0  0  0  0  0  0  0  0
   -0.1466   -0.7190    0.0719 C   0  0  0  0  0  0  0  0  0  0  0  0
   -1.3816    0.9046    0.7950 H   0  0  0  0  0  0  0  0  0  0  0  0
   -1.3554    0.9407   -0.9712 H   0  0  0  0  0  0  0  0  0  0  0  0
   -0.0380   -1.4538    1.0110 H   0  0  0  0  0  0  0  0  0  0  0  0
    0.7204   -0.1776   -0.0826 H   0  0  0  0  0  0  0  0  0  0  0  0
   -0.1100   -1.2550   -0.7156 H   0  0  0  0  0  0  0  0  0  0  0  0
  1  5  1  0  0  0  0
  2  1  1  0  0  0  0
  2  8  1  0  0  0  0
  3  1  1  0  0  0  0
  4  1  1  0  0  0  0
  6  2  1  0  0  0  0
  6  9  1  0  0  0  0
  6 10  1  0  0  0  0
  7  2  1  0  0  0  0
  9 12  1  0  0  0  0
 11  6  1  0  0  0  0
 13  9  1  0  0  0  0
 14  9  1  0  0  0  0
M  END
$$$$
