14
butane_opt
C  -3.938358   0.278654  -0.042339
C  -2.692166  -0.602561   0.093763
H  -4.823028  -0.312743  -0.013745
H  -3.867215   0.902784  -0.959900
H  -4.089359   0.861019   0.799509
C  -1.401300   0.155068   0.070691
H  -2.688208  -1.282203  -0.764759
H  -2.718744  -1.290715   1.037384
C  -0.184199  -0.687500  -0.026837
H  -1.325222   0.960978   1.062284
H  -1.368671   0.642683  -0.729001
H  -0.072869  -1.377684   0.909017
H   0.798968  -0.028502  -0.199123
H  -0.284666  -1.251008  -0.843214
