14
butane_opt
C  -3.922295   0.238281   0.060434
C  -2.678100  -0.596331   0.004121
H  -4.890634  -0.379332   0.083834
H  -3.993197   0.880822  -0.808501
H  -3.920047   0.941468   0.961348
C  -1.419670   0.202581  -0.053386
H  -2.748410  -1.215273  -0.812693
H  -2.715787  -1.230741   0.889893
C  -0.171643  -0.699081   0.068362
H  -1.407954   0.831608   0.782127
H  -1.456496   0.835181  -0.964075
H  -0.339821  -1.229193   0.959819
H   0.693841  -0.182978   0.247218
H   0.071470  -1.489332  -0.865118
