14
butane_opt
C  -3.948637   0.273351   0.044312
C  -2.700202  -0.620747   0.002126
H  -4.855271  -0.294478   0.059869
H  -4.049011   0.877924  -0.842170
H  -3.909166   0.962333   0.892167
C  -1.399260   0.175079   0.004065
H  -2.767646  -1.383749  -0.900952
H  -2.728974  -1.221805   0.876953
C  -0.157647  -0.686045   0.054760
H  -1.377972   0.782495   0.817506
H  -1.377918   0.849232  -0.939528
H  -0.114859  -1.380824   0.993281
H   0.755648  -0.073785  -0.035574
H  -0.140070  -1.275775  -0.736941
