14
butane_opt
C  -3.935941   0.243001   0.057627
C  -2.702620  -0.572132  -0.017462
H  -4.865664  -0.407862   0.282778
H  -3.985900   0.980788  -0.942167
H  -3.757632   0.775044   0.850637
C  -1.401364   0.190309  -0.020999
H  -2.708790  -1.274891  -0.865994
H  -2.732038  -1.124592   0.852914
C  -0.173873  -0.713608   0.063957
H  -1.413043   0.910284   0.872356
H  -1.419277   0.737281  -0.886814
H  -0.270589  -1.332056   0.970928
H   0.707812  -0.175771   0.078179
H  -0.005091  -1.331389  -0.782362
