14
butane_opt
C  -3.947234   0.284315   0.014448
C  -2.706518  -0.631613   0.031223
H  -4.786247  -0.262710   0.172494
H  -4.044909   1.069316  -1.025343
H  -3.876880   0.777428   0.777927
C  -1.393479   0.144814   0.041243
H  -2.612468  -1.271608  -0.843830
H  -2.717230  -1.276612   0.934781
C  -0.175873  -0.678341   0.024567
H  -1.405079   0.894772   0.948966
H  -1.318266   0.801573  -0.873246
H  -0.137406  -1.198551   0.866573
H   0.794311  -0.037108   0.001337
H  -0.254590  -1.384135  -0.882987
