14
butane_opt
C  -3.925193   0.270903   0.071310
C  -2.695829  -0.623977  -0.038695
H  -4.832109  -0.355333   0.289446
H  -4.052602   0.893284  -0.822341
H  -3.828074   0.851728   0.893139
C  -1.428848   0.203774  -0.050333
H  -2.806856  -1.313481  -0.939610
H  -2.550829  -1.234861   0.783470
C  -0.167022  -0.692632   0.094545
H  -1.420285   0.887870   0.844267
H  -1.299728   0.739186  -0.923286
H  -0.208342  -1.405067   1.039340
H   0.699064  -0.112268   0.067395
H  -0.120922  -1.312974  -0.716443
