butane_opt
 OpenBabel08242015423D

 14 13  0  0  0  0  0  0  0  0999 V2000
   -3.9662    0.2645    0.0758 C   0  0  0  0  0  0  0  0  0  0  0  0
   -2.7150   -0.6039   -0.0265 C   0  0  0  0  0  0  0  0  0  0  0  0
   -4.9229   -0.3871    0.1385 H   0  0  0  0  0  0  0  0  0  0  0  0
   -3.9351    0.8064   -0.8138 H   0  0  0  0  0  0  0  0  0  0  0  0
   -3.9013    0.9461    1.0103 H   0  0  0  0  0  0  0  0  0  0  0  0
   -1.3973    0.2064   -0.0569 C   0  0  0  0  0  0  0  0  0  0  0  0
   -2.7982   -1.2494   -0.8629 H   0  0  0  0  0  0  0  0  0  0  0  0
   -2.7271   -1.2662    0.8883 H   0  0  0  0  0  0  0  0  0  0  0  0
   -0.1391   -0.7061    0.0888 C   0  0  0  0  0  0  0  0  0  0  0  0
   -1.4392    0.8332    0.6926 H   0  0  0  0  0  0  0  0  0  0  0  0
   -1.3159    0.7978   -0.9417 H   0  0  0  0  0  0  0  0  0  0  0  0
   -0.1538   -1.3251    0.9646 H   0  0  0  0  0  0  0  0  0  0  0  0
    0.7488   -0.1507    0.1879 H   0  0  0  0  0  0  0  0  0  0  0  0
    0.0293   -1.4080   -0.7905 H   0  0  0  0  0  0  0  0  0  0  0  0
  1  3  1  0  0  0  0
  1  5  1  0  0  0  0
  2  1  1  0  0  0  0
  2  8  1  0  0  0  0
  4  1  1  0  0  0  0
  6  2  1  0  0  0  0
  6  9  1  0  0  0  0
  6 10  1  0  0  0  0
  7  2  1  0  0  0  0
  9 13  1  0  0  0  0
  9 12  1  0  0  0  0
 11  6  1  0  0  0  0
 14  9  1  0  0  0  0
M  END
$$$$
