14
butane_opt
C  -3.913274   0.244350   0.036744
C  -2.713077  -0.593792   0.031033
H  -4.876557  -0.353168   0.033726
H  -3.997591   0.863750  -0.858479
H  -3.899842   0.935561   0.893237
C  -1.413362   0.210268  -0.030052
H  -2.833696  -1.292862  -0.789476
H  -2.662946  -1.281658   0.954063
C  -0.155016  -0.708556   0.054509
H  -1.493133   0.855005   0.795672
H  -1.413346   0.855740  -0.925311
H  -0.195735  -1.215373   0.889826
H   0.720814  -0.133489   0.192927
H  -0.028850  -1.540503  -0.883644
