14
butane_opt
C  -3.929679   0.251272  -0.029651
C  -2.697015  -0.590570   0.090310
H  -4.907501  -0.394938  -0.184672
H  -3.905511   0.790696  -0.935547
H  -4.023378   0.958504   0.831126
C  -1.418695   0.182950   0.062287
H  -2.598086  -1.120464  -0.656680
H  -2.720924  -1.292051   1.046007
C  -0.164044  -0.701879  -0.012228
H  -1.366340   0.930291   1.002570
H  -1.411056   0.728893  -0.783545
H   0.001651  -1.345011   0.895580
H   0.723680  -0.088411  -0.184364
H  -0.288472  -1.358855  -0.918144
