butane_opt
 OpenBabel08242015423D

 14 13  0  0  0  0  0  0  0  0999 V2000
   -3.9191    0.2590   -0.0206 C   0  0  0  0  0  0  0  0  0  0  0  0
   -2.7072   -0.6036    0.0815 C   0  0  0  0  0  0  0  0  0  0  0  0
   -4.9073   -0.3955   -0.0537 H   0  0  0  0  0  0  0  0  0  0  0  0
   -3.8120    0.8944   -0.9287 H   0  0  0  0  0  0  0  0  0  0  0  0
   -3.9763    0.8221    0.7860 H   0  0  0  0  0  0  0  0  0  0  0  0
   -1.4080    0.2143    0.0755 C   0  0  0  0  0  0  0  0  0  0  0  0
   -2.6240   -1.3407   -0.8403 H   0  0  0  0  0  0  0  0  0  0  0  0
   -2.8079   -1.1827    0.9510 H   0  0  0  0  0  0  0  0  0  0  0  0
   -0.1789   -0.7124   -0.0175 C   0  0  0  0  0  0  0  0  0  0  0  0
   -1.3796    0.8953    0.9468 H   0  0  0  0  0  0  0  0  0  0  0  0
   -1.4875    0.7962   -0.7647 H   0  0  0  0  0  0  0  0  0  0  0  0
    0.0783   -1.4515    0.9302 H   0  0  0  0  0  0  0  0  0  0  0  0
    0.6814   -0.1431   -0.2037 H   0  0  0  0  0  0  0  0  0  0  0  0
   -0.2296   -1.2573   -0.7889 H   0  0  0  0  0  0  0  0  0  0  0  0
  1  2  1  0  0  0  0
  1  5  1  0  0  0  0
  2  8  1  0  0  0  0
  3  1  1  0  0  0  0
  4  1  1  0  0  0  0
  6  2  1  0  0  0  0
  6 10  1  0  0  0  0
  7  2  1  0  0  0  0
  9  6  1  0  0  0  0
  9 12  1  0  0  0  0
 11  6  1  0  0  0  0
 13  9  1  0  0  0  0
 14  9  1  0  0  0  0
M  END
$$$$
