14
butane_opt
C  -3.968775   0.294943   0.048615
C  -2.706779  -0.624640   0.014719
H  -4.870597  -0.334594  -0.113720
H  -3.966925   0.622792  -0.652011
H  -4.054076   1.149723   1.036401
C  -1.388027   0.159882  -0.050809
H  -2.837733  -1.298308  -0.833951
H  -2.668119  -1.327770   0.903754
C  -0.142322  -0.678565   0.078033
H  -1.363885   0.811786   0.769850
H  -1.294408   0.839475  -1.000919
H  -0.161832  -1.386226   1.007549
H   0.769516  -0.063016   0.036736
H  -0.116917  -1.302699  -0.771918
