butane_opt
 OpenBabel08242015423D

 14 13  0  0  0  0  0  0  0  0999 V2000
   -3.9407    0.2695   -0.0090 C   0  0  0  0  0  0  0  0  0  0  0  0
   -2.6869   -0.6238    0.0753 C   0  0  0  0  0  0  0  0  0  0  0  0
   -4.8087   -0.2910   -0.0577 H   0  0  0  0  0  0  0  0  0  0  0  0
   -3.8977    0.8880   -0.8954 H   0  0  0  0  0  0  0  0  0  0  0  0
   -4.0287    0.9539    0.8453 H   0  0  0  0  0  0  0  0  0  0  0  0
   -1.4015    0.1756    0.0298 C   0  0  0  0  0  0  0  0  0  0  0  0
   -2.7246   -1.2655   -0.7210 H   0  0  0  0  0  0  0  0  0  0  0  0
   -2.7372   -1.2656    0.9841 H   0  0  0  0  0  0  0  0  0  0  0  0
   -0.1771   -0.6867    0.0045 C   0  0  0  0  0  0  0  0  0  0  0  0
   -1.3745    0.8989    0.9129 H   0  0  0  0  0  0  0  0  0  0  0  0
   -1.3935    0.7397   -0.8111 H   0  0  0  0  0  0  0  0  0  0  0  0
   -0.1800   -1.3040    0.9005 H   0  0  0  0  0  0  0  0  0  0  0  0
    0.7490   -0.0546   -0.0416 H   0  0  0  0  0  0  0  0  0  0  0  0
   -0.1629   -1.3828   -0.8917 H   0  0  0  0  0  0  0  0  0  0  0  0
  1  2  1  0  0  0  0
  1  5  1  0  0  0  0
  2  8  1  0  0  0  0
  3  1  1  0  0  0  0
  4  1  1  0  0  0  0
  6  2  1  0  0  0  0
  6 10  1  0  0  0  0
  7  2  1  0  0  0  0
  9  6  1  0  0  0  0
  9 12  1  0  0  0  0
 11  6  1  0  0  0  0
 13  9  1  0  0  0  0
 14  9  1  0  0  0  0
M  END
$$$$
