butane_opt
 OpenBabel08242015423D

 14 13  0  0  0  0  0  0  0  0999 V2000
   -3.9204    0.2514    0.0469 C   0  0  0  0  0  0  0  0  0  0  0  0
   -2.7002   -0.6040    0.0285 C   0  0  0  0  0  0  0  0  0  0  0  0
   -4.8558   -0.4374   -0.1510 H   0  0  0  0  0  0  0  0  0  0  0  0
   -3.8195    0.6027   -0.6673 H   0  0  0  0  0  0  0  0  0  0  0  0
   -3.9802    1.1855    1.0695 H   0  0  0  0  0  0  0  0  0  0  0  0
   -1.4199    0.2090   -0.0566 C   0  0  0  0  0  0  0  0  0  0  0  0
   -2.7546   -1.2883   -0.8592 H   0  0  0  0  0  0  0  0  0  0  0  0
   -2.6879   -1.2512    0.8964 H   0  0  0  0  0  0  0  0  0  0  0  0
   -0.1736   -0.7102    0.0737 C   0  0  0  0  0  0  0  0  0  0  0  0
   -1.4499    0.8818    0.8144 H   0  0  0  0  0  0  0  0  0  0  0  0
   -1.4777    0.9001   -1.0094 H   0  0  0  0  0  0  0  0  0  0  0  0
   -0.1092   -1.4041    1.0030 H   0  0  0  0  0  0  0  0  0  0  0  0
    0.6928   -0.1557   -0.0129 H   0  0  0  0  0  0  0  0  0  0  0  0
   -0.0151   -1.2692   -0.7110 H   0  0  0  0  0  0  0  0  0  0  0  0
  1  5  1  0  0  0  0
  2  1  1  0  0  0  0
  2  8  1  0  0  0  0
  3  1  1  0  0  0  0
  4  1  1  0  0  0  0
  6  2  1  0  0  0  0
  6  9  1  0  0  0  0
  6 10  1  0  0  0  0
  7  2  1  0  0  0  0
  9 12  1  0  0  0  0
 11  6  1  0  0  0  0
 13  9  1  0  0  0  0
 14  9  1  0  0  0  0
M  END
$$$$
