14
butane_opt
C  -3.939331   0.273155   0.035654
C  -2.693337  -0.637817   0.039189
H  -4.814517  -0.260436   0.043837
H  -3.996833   0.944752  -0.889967
H  -3.906333   0.961785   0.857589
C  -1.418833   0.172217  -0.019932
H  -2.673350  -1.353342  -0.852549
H  -2.722857  -1.284324   0.961490
C  -0.161337  -0.680447   0.041219
H  -1.374842   0.912942   0.844043
H  -1.399464   0.761490  -0.906762
H  -0.265013  -1.231701   0.926992
H   0.792689  -0.054302   0.136016
H  -0.118220  -1.387088  -0.839800
