14
butane_opt
C  -3.943388   0.256216  -0.001535
C  -2.708833  -0.602803   0.063591
H  -4.872885  -0.354148   0.100442
H  -3.948325   0.954587  -0.956781
H  -3.992152   0.851624   0.846626
C  -1.406534   0.191922   0.012950
H  -2.744420  -1.258553  -0.792580
H  -2.732638  -1.293649   1.006219
C  -0.145333  -0.699477   0.017785
H  -1.391979   0.903398   0.892520
H  -1.464652   0.782898  -0.835720
H  -0.135716  -1.201410   0.837891
H   0.771028  -0.098775   0.140027
H  -0.062074  -1.507187  -0.929162
