14
butane_opt
C  -3.967693   0.280683   0.048554
C  -2.688066  -0.631857   0.005430
H  -4.816272  -0.311059   0.081677
H  -4.101623   0.917318  -0.823176
H  -4.070470   0.928107   0.899053
C  -1.386427   0.162931  -0.016725
H  -2.755767  -1.296663  -0.831652
H  -2.695374  -1.263990   0.899912
C  -0.148993  -0.674880   0.067425
H  -1.429153   0.753192   0.698757
H  -1.372062   0.839240  -0.943757
H  -0.135508  -1.191841   0.898553
H   0.811412  -0.040240   0.165964
H  -0.164809  -1.440637  -0.865390
