butane_opt
 OpenBabel08242015423D

 14 13  0  0  0  0  0  0  0  0999 V2000
   -3.9183    0.2492    0.0742 C   0  0  0  0  0  0  0  0  0  0  0  0
   -2.7154   -0.6098   -0.0086 C   0  0  0  0  0  0  0  0  0  0  0  0
   -4.8063   -0.3507    0.0860 H   0  0  0  0  0  0  0  0  0  0  0  0
   -3.9511    0.8557   -0.8313 H   0  0  0  0  0  0  0  0  0  0  0  0
   -3.8512    0.9476    0.9818 H   0  0  0  0  0  0  0  0  0  0  0  0
   -1.4061    0.2054   -0.0694 C   0  0  0  0  0  0  0  0  0  0  0  0
   -2.7924   -1.1721   -0.8005 H   0  0  0  0  0  0  0  0  0  0  0  0
   -2.7175   -1.2305    0.8739 H   0  0  0  0  0  0  0  0  0  0  0  0
   -0.1703   -0.7077    0.0793 C   0  0  0  0  0  0  0  0  0  0  0  0
   -1.4786    0.8404    0.7824 H   0  0  0  0  0  0  0  0  0  0  0  0
   -1.4338    0.8718   -0.9990 H   0  0  0  0  0  0  0  0  0  0  0  0
   -0.2167   -1.2257    0.9582 H   0  0  0  0  0  0  0  0  0  0  0  0
    0.7348   -0.1449    0.3379 H   0  0  0  0  0  0  0  0  0  0  0  0
   -0.0001   -1.5146   -0.8608 H   0  0  0  0  0  0  0  0  0  0  0  0
  1  3  1  0  0  0  0
  1  5  1  0  0  0  0
  2  1  1  0  0  0  0
  2  8  1  0  0  0  0
  4  1  1  0  0  0  0
  6  2  1  0  0  0  0
  6  9  1  0  0  0  0
  6 10  1  0  0  0  0
  7  2  1  0  0  0  0
  9 13  1  0  0  0  0
  9 12  1  0  0  0  0
 11  6  1  0  0  0  0
 14  9  1  0  0  0  0
M  END
$$$$
