14
butane_opt
C  -3.928577   0.272338  -0.036816
C  -2.684993  -0.634773   0.092699
H  -4.829796  -0.339358   0.170430
H  -3.959557   0.962061  -1.014437
H  -3.920050   0.888416   0.795851
C  -1.427759   0.182731   0.052223
H  -2.661248  -1.290071  -0.717683
H  -2.686088  -1.263815   1.025739
C  -0.189450  -0.688524  -0.007031
H  -1.333963   0.821431   0.883048
H  -1.396558   0.879299  -0.884549
H  -0.146588  -1.068419   0.758417
H   0.770513  -0.057489   0.191937
H  -0.101422  -1.581973  -1.007091
