butane_opt
 OpenBabel08242015423D

 14 13  0  0  0  0  0  0  0  0999 V2000
   -3.9337    0.2545   -0.0162 C   0  0  0  0  0  0  0  0  0  0  0  0
   -2.6944   -0.6042    0.0782 C   0  0  0  0  0  0  0  0  0  0  0  0
   -4.8855   -0.3587   -0.0529 H   0  0  0  0  0  0  0  0  0  0  0  0
   -3.9015    0.8546   -0.9006 H   0  0  0  0  0  0  0  0  0  0  0  0
   -3.9791    0.9568    0.8766 H   0  0  0  0  0  0  0  0  0  0  0  0
   -1.4151    0.1922    0.0332 C   0  0  0  0  0  0  0  0  0  0  0  0
   -2.6923   -1.2236   -0.7449 H   0  0  0  0  0  0  0  0  0  0  0  0
   -2.7407   -1.2818    1.0179 H   0  0  0  0  0  0  0  0  0  0  0  0
   -0.1679   -0.7069    0.0026 C   0  0  0  0  0  0  0  0  0  0  0  0
   -1.4091    0.9282    0.9127 H   0  0  0  0  0  0  0  0  0  0  0  0
   -1.3940    0.7774   -0.8313 H   0  0  0  0  0  0  0  0  0  0  0  0
   -0.0707   -1.2902    0.8713 H   0  0  0  0  0  0  0  0  0  0  0  0
    0.7797   -0.0880   -0.0104 H   0  0  0  0  0  0  0  0  0  0  0  0
   -0.1915   -1.3797   -0.8732 H   0  0  0  0  0  0  0  0  0  0  0  0
  1  2  1  0  0  0  0
  1  5  1  0  0  0  0
  2  8  1  0  0  0  0
  3  1  1  0  0  0  0
  4  1  1  0  0  0  0
  6  2  1  0  0  0  0
  6 10  1  0  0  0  0
  7  2  1  0  0  0  0
  9  6  1  0  0  0  0
  9 12  1  0  0  0  0
 11  6  1  0  0  0  0
 13  9  1  0  0  0  0
 14  9  1  0  0  0  0
M  END
$$$$
