butane_opt
 OpenBabel08242015423D

 14 13  0  0  0  0  0  0  0  0999 V2000
   -3.9583    0.2869    0.0499 C   0  0  0  0  0  0  0  0  0  0  0  0
   -2.6952   -0.6484    0.0104 C   0  0  0  0  0  0  0  0  0  0  0  0
   -4.8809   -0.2999   -0.1482 H   0  0  0  0  0  0  0  0  0  0  0  0
   -3.9731    0.6602   -0.7261 H   0  0  0  0  0  0  0  0  0  0  0  0
   -4.1451    1.1968    1.0580 H   0  0  0  0  0  0  0  0  0  0  0  0
   -1.3949    0.1741   -0.0458 C   0  0  0  0  0  0  0  0  0  0  0  0
   -2.7453   -1.2665   -0.8004 H   0  0  0  0  0  0  0  0  0  0  0  0
   -2.6537   -1.3538    0.9274 H   0  0  0  0  0  0  0  0  0  0  0  0
   -0.1531   -0.6684    0.0747 C   0  0  0  0  0  0  0  0  0  0  0  0
   -1.3634    0.8016    0.7702 H   0  0  0  0  0  0  0  0  0  0  0  0
   -1.3711    0.7999   -0.8945 H   0  0  0  0  0  0  0  0  0  0  0  0
   -0.0698   -1.3948    1.0269 H   0  0  0  0  0  0  0  0  0  0  0  0
    0.7307   -0.0655   -0.0349 H   0  0  0  0  0  0  0  0  0  0  0  0
   -0.1373   -1.2805   -0.7727 H   0  0  0  0  0  0  0  0  0  0  0  0
  1  5  1  0  0  0  0
  2  1  1  0  0  0  0
  2  8  1  0  0  0  0
  3  1  1  0  0  0  0
  4  1  1  0  0  0  0
  6  2  1  0  0  0  0
  6  9  1  0  0  0  0
  6 10  1  0  0  0  0
  7  2  1  0  0  0  0
  9 12  1  0  0  0  0
 11  6  1  0  0  0  0
 13  9  1  0  0  0  0
 14  9  1  0  0  0  0
M  END
$$$$
