14
butane_opt
C  -3.972688   0.286433   0.083031
C  -2.685614  -0.649799  -0.033197
H  -4.845592  -0.272633   0.219139
H  -4.075078   1.049083  -0.899358
H  -3.925126   0.856464   0.850708
C  -1.390355   0.167394  -0.027685
H  -2.804433  -1.464578  -0.991288
H  -2.656178  -1.182410   0.823265
C  -0.166819  -0.660848   0.085078
H  -1.415437   0.816696   0.796278
H  -1.261816   0.826570  -0.952915
H  -0.170714  -1.366679   1.024503
H   0.751417  -0.107863   0.037504
H  -0.053006  -1.328724  -0.772244
