butane_opt
 OpenBabel08242015423D

 14 13  0  0  0  0  0  0  0  0999 V2000
   -3.9559    0.2486    0.0555 C   0  0  0  0  0  0  0  0  0  0  0  0
   -2.7132   -0.5881   -0.0143 C   0  0  0  0  0  0  0  0  0  0  0  0
   -4.9469   -0.3870    0.0225 H   0  0  0  0  0  0  0  0  0  0  0  0
   -3.9373    0.7725   -0.7800 H   0  0  0  0  0  0  0  0  0  0  0  0
   -3.8570    1.0617    1.0044 H   0  0  0  0  0  0  0  0  0  0  0  0
   -1.4005    0.1975    0.0001 C   0  0  0  0  0  0  0  0  0  0  0  0
   -2.7935   -1.3652   -0.9212 H   0  0  0  0  0  0  0  0  0  0  0  0
   -2.7711   -1.1058    0.7825 H   0  0  0  0  0  0  0  0  0  0  0  0
   -0.1385   -0.7062    0.0741 C   0  0  0  0  0  0  0  0  0  0  0  0
   -1.4445    0.7608    0.7389 H   0  0  0  0  0  0  0  0  0  0  0  0
   -1.3315    0.8654   -0.9735 H   0  0  0  0  0  0  0  0  0  0  0  0
   -0.0469   -1.5418    1.0923 H   0  0  0  0  0  0  0  0  0  0  0  0
    0.7010   -0.1643   -0.2188 H   0  0  0  0  0  0  0  0  0  0  0  0
   -0.0980   -1.1918   -0.6638 H   0  0  0  0  0  0  0  0  0  0  0  0
  1  5  1  0  0  0  0
  2  6  1  0  0  0  0
  2  1  1  0  0  0  0
  2  8  1  0  0  0  0
  3  1  1  0  0  0  0
  4  1  1  0  0  0  0
  6  9  1  0  0  0  0
  6 10  1  0  0  0  0
  7  2  1  0  0  0  0
  9 12  1  0  0  0  0
 11  6  1  0  0  0  0
 13  9  1  0  0  0  0
 14  9  1  0  0  0  0
M  END
$$$$
