butane_opt
 OpenBabel08242015423D

 14 13  0  0  0  0  0  0  0  0999 V2000
   -3.9591    0.2441    0.0376 C   0  0  0  0  0  0  0  0  0  0  0  0
   -2.7048   -0.6066    0.0303 C   0  0  0  0  0  0  0  0  0  0  0  0
   -4.8763   -0.3357   -0.1166 H   0  0  0  0  0  0  0  0  0  0  0  0
   -3.8485    0.7182   -0.7877 H   0  0  0  0  0  0  0  0  0  0  0  0
   -4.0474    1.1440    0.9845 H   0  0  0  0  0  0  0  0  0  0  0  0
   -1.3998    0.2171   -0.0090 C   0  0  0  0  0  0  0  0  0  0  0  0
   -2.7711   -1.2764   -0.8096 H   0  0  0  0  0  0  0  0  0  0  0  0
   -2.6983   -1.2093    0.9346 H   0  0  0  0  0  0  0  0  0  0  0  0
   -0.1536   -0.7089    0.0551 C   0  0  0  0  0  0  0  0  0  0  0  0
   -1.3622    0.7205    0.7290 H   0  0  0  0  0  0  0  0  0  0  0  0
   -1.3279    0.8936   -0.9674 H   0  0  0  0  0  0  0  0  0  0  0  0
   -0.0692   -1.3472    0.9565 H   0  0  0  0  0  0  0  0  0  0  0  0
    0.7130   -0.1600   -0.0033 H   0  0  0  0  0  0  0  0  0  0  0  0
   -0.1193   -1.3788   -0.8242 H   0  0  0  0  0  0  0  0  0  0  0  0
  1  5  1  0  0  0  0
  2  1  1  0  0  0  0
  2  8  1  0  0  0  0
  3  1  1  0  0  0  0
  4  1  1  0  0  0  0
  6  2  1  0  0  0  0
  6  9  1  0  0  0  0
  6 10  1  0  0  0  0
  7  2  1  0  0  0  0
  9 12  1  0  0  0  0
 11  6  1  0  0  0  0
 13  9  1  0  0  0  0
 14  9  1  0  0  0  0
M  END
$$$$
