butane_opt
 OpenBabel08242015423D

 14 13  0  0  0  0  0  0  0  0999 V2000
   -3.9595    0.2869   -0.0326 C   0  0  0  0  0  0  0  0  0  0  0  0
   -2.6962   -0.6434    0.1098 C   0  0  0  0  0  0  0  0  0  0  0  0
   -4.9003   -0.3314   -0.1081 H   0  0  0  0  0  0  0  0  0  0  0  0
   -3.9530    0.9668   -0.9451 H   0  0  0  0  0  0  0  0  0  0  0  0
   -4.0859    0.9255    0.7436 H   0  0  0  0  0  0  0  0  0  0  0  0
   -1.4076    0.1714    0.0470 C   0  0  0  0  0  0  0  0  0  0  0  0
   -2.6883   -1.2896   -0.6912 H   0  0  0  0  0  0  0  0  0  0  0  0
   -2.6445   -1.3637    1.0671 H   0  0  0  0  0  0  0  0  0  0  0  0
   -0.1532   -0.6747   -0.0162 C   0  0  0  0  0  0  0  0  0  0  0  0
   -1.2594    0.9480    0.9930 H   0  0  0  0  0  0  0  0  0  0  0  0
   -1.4038    0.6990   -0.7899 H   0  0  0  0  0  0  0  0  0  0  0  0
   -0.1104   -1.2249    0.8096 H   0  0  0  0  0  0  0  0  0  0  0  0
    0.7960   -0.0499    0.0206 H   0  0  0  0  0  0  0  0  0  0  0  0
   -0.1817   -1.4348   -0.9763 H   0  0  0  0  0  0  0  0  0  0  0  0
  1  2  1  0  0  0  0
  1  5  1  0  0  0  0
  2  8  1  0  0  0  0
  3  1  1  0  0  0  0
  4  1  1  0  0  0  0
  6  2  1  0  0  0  0
  6 10  1  0  0  0  0
  7  2  1  0  0  0  0
  9 13  1  0  0  0  0
  9  6  1  0  0  0  0
  9 12  1  0  0  0  0
 11  6  1  0  0  0  0
 14  9  1  0  0  0  0
M  END
$$$$
