butane_opt
 OpenBabel08242015423D

 14 13  0  0  0  0  0  0  0  0999 V2000
   -3.9171    0.2438    0.0727 C   0  0  0  0  0  0  0  0  0  0  0  0
   -2.6998   -0.5969   -0.0484 C   0  0  0  0  0  0  0  0  0  0  0  0
   -4.8450   -0.3542    0.3384 H   0  0  0  0  0  0  0  0  0  0  0  0
   -4.1726    0.9130   -0.8495 H   0  0  0  0  0  0  0  0  0  0  0  0
   -3.7847    0.8538    0.9191 H   0  0  0  0  0  0  0  0  0  0  0  0
   -1.4098    0.2132   -0.0472 C   0  0  0  0  0  0  0  0  0  0  0  0
   -2.7801   -1.3109   -0.9239 H   0  0  0  0  0  0  0  0  0  0  0  0
   -2.6969   -1.2103    0.7812 H   0  0  0  0  0  0  0  0  0  0  0  0
   -0.1665   -0.7083    0.0981 C   0  0  0  0  0  0  0  0  0  0  0  0
   -1.5420    0.8860    0.8018 H   0  0  0  0  0  0  0  0  0  0  0  0
   -1.3694    0.8152   -0.9021 H   0  0  0  0  0  0  0  0  0  0  0  0
   -0.2003   -1.3948    1.0722 H   0  0  0  0  0  0  0  0  0  0  0  0
    0.7157   -0.1080    0.0399 H   0  0  0  0  0  0  0  0  0  0  0  0
   -0.0256   -1.3816   -0.7538 H   0  0  0  0  0  0  0  0  0  0  0  0
  1  3  1  0  0  0  0
  1  5  1  0  0  0  0
  2  6  1  0  0  0  0
  2  1  1  0  0  0  0
  2  8  1  0  0  0  0
  4  1  1  0  0  0  0
  6  9  1  0  0  0  0
  6 10  1  0  0  0  0
  7  2  1  0  0  0  0
  9 12  1  0  0  0  0
 11  6  1  0  0  0  0
 13  9  1  0  0  0  0
 14  9  1  0  0  0  0
M  END
$$$$
