butane_opt
 OpenBabel08242015423D

 14 13  0  0  0  0  0  0  0  0999 V2000
   -3.9727    0.2864    0.0830 C   0  0  0  0  0  0  0  0  0  0  0  0
   -2.6856   -0.6498   -0.0332 C   0  0  0  0  0  0  0  0  0  0  0  0
   -4.8456   -0.2726    0.2191 H   0  0  0  0  0  0  0  0  0  0  0  0
   -4.0751    1.0491   -0.8994 H   0  0  0  0  0  0  0  0  0  0  0  0
   -3.9251    0.8565    0.8507 H   0  0  0  0  0  0  0  0  0  0  0  0
   -1.3904    0.1674   -0.0277 C   0  0  0  0  0  0  0  0  0  0  0  0
   -2.8044   -1.4646   -0.9913 H   0  0  0  0  0  0  0  0  0  0  0  0
   -2.6562   -1.1824    0.8233 H   0  0  0  0  0  0  0  0  0  0  0  0
   -0.1668   -0.6608    0.0851 C   0  0  0  0  0  0  0  0  0  0  0  0
   -1.4154    0.8167    0.7963 H   0  0  0  0  0  0  0  0  0  0  0  0
   -1.2618    0.8266   -0.9529 H   0  0  0  0  0  0  0  0  0  0  0  0
   -0.1707   -1.3667    1.0245 H   0  0  0  0  0  0  0  0  0  0  0  0
    0.7514   -0.1079    0.0375 H   0  0  0  0  0  0  0  0  0  0  0  0
   -0.0530   -1.3287   -0.7722 H   0  0  0  0  0  0  0  0  0  0  0  0
  1  3  1  0  0  0  0
  1  5  1  0  0  0  0
  2  6  1  0  0  0  0
  2  1  1  0  0  0  0
  2  8  1  0  0  0  0
  4  1  1  0  0  0  0
  6  9  1  0  0  0  0
  6 10  1  0  0  0  0
  7  2  1  0  0  0  0
  9 12  1  0  0  0  0
 11  6  1  0  0  0  0
 13  9  1  0  0  0  0
 14  9  1  0  0  0  0
M  END
$$$$
