14
butane_opt
C  -3.959494   0.286893  -0.032613
C  -2.696210  -0.643359   0.109849
H  -4.900300  -0.331446  -0.108149
H  -3.952998   0.966838  -0.945082
H  -4.085911   0.925481   0.743555
C  -1.407602   0.171423   0.047027
H  -2.688290  -1.289570  -0.691221
H  -2.644500  -1.363743   1.067063
C  -0.153163  -0.674670  -0.016243
H  -1.259380   0.948001   0.992991
H  -1.403756   0.698956  -0.789937
H  -0.110409  -1.224942   0.809650
H   0.795997  -0.049893   0.020583
H  -0.181693  -1.434839  -0.976279
