butane_opt
 OpenBabel08242015423D

 14 13  0  0  0  0  0  0  0  0999 V2000
   -3.9484    0.2827    0.0297 C   0  0  0  0  0  0  0  0  0  0  0  0
   -2.6912   -0.6223    0.0579 C   0  0  0  0  0  0  0  0  0  0  0  0
   -4.8530   -0.3381   -0.2231 H   0  0  0  0  0  0  0  0  0  0  0  0
   -3.8985    0.7146   -0.7428 H   0  0  0  0  0  0  0  0  0  0  0  0
   -4.0035    1.1149    0.9809 H   0  0  0  0  0  0  0  0  0  0  0  0
   -1.3776    0.1638   -0.0335 C   0  0  0  0  0  0  0  0  0  0  0  0
   -2.7488   -1.3116   -0.8413 H   0  0  0  0  0  0  0  0  0  0  0  0
   -2.6076   -1.2423    0.9648 H   0  0  0  0  0  0  0  0  0  0  0  0
   -0.1794   -0.6855    0.0409 C   0  0  0  0  0  0  0  0  0  0  0  0
   -1.3886    0.7972    0.8118 H   0  0  0  0  0  0  0  0  0  0  0  0
   -1.4169    0.8042   -0.8907 H   0  0  0  0  0  0  0  0  0  0  0  0
   -0.2713   -1.3150    0.9824 H   0  0  0  0  0  0  0  0  0  0  0  0
    0.7222   -0.0649    0.0275 H   0  0  0  0  0  0  0  0  0  0  0  0
   -0.1901   -1.3029   -0.7620 H   0  0  0  0  0  0  0  0  0  0  0  0
  1  2  1  0  0  0  0
  1  5  1  0  0  0  0
  2  8  1  0  0  0  0
  3  1  1  0  0  0  0
  4  1  1  0  0  0  0
  6  9  1  0  0  0  0
  6  2  1  0  0  0  0
  6 10  1  0  0  0  0
  7  2  1  0  0  0  0
  9 12  1  0  0  0  0
 11  6  1  0  0  0  0
 13  9  1  0  0  0  0
 14  9  1  0  0  0  0
M  END
$$$$
