14
butane_opt
C  -3.925160   0.244509   0.023393
C  -2.698188  -0.590168   0.021000
H  -4.916692  -0.381084  -0.108956
H  -3.813814   0.671328  -0.747172
H  -3.922494   1.140197   1.044764
C  -1.429291   0.190144   0.007126
H  -2.794492  -1.247145  -0.823720
H  -2.739988  -1.206059   0.960353
C  -0.153118  -0.708617   0.048648
H  -1.454753   0.801328   0.805308
H  -1.454227   0.945384  -0.990203
H  -0.092796  -1.463998   0.987044
H   0.776107  -0.075279  -0.101055
H  -0.146794  -1.296098  -0.756722
