14
butane_opt
C  -3.903267   0.249391   0.071588
C  -2.716438  -0.592879  -0.017169
H  -4.803612  -0.366266  -0.092236
H  -3.890877   0.721902  -0.743257
H  -3.940990   1.060258   0.970744
C  -1.413643   0.196762  -0.025656
H  -2.783095  -1.329386  -0.868414
H  -2.698659  -1.180508   0.825967
C  -0.175977  -0.714829   0.084811
H  -1.445260   0.827597   0.776593
H  -1.436247   0.904506  -0.975285
H  -0.084456  -1.443331   1.053367
H   0.697511  -0.117215  -0.177345
H  -0.129021  -1.211976  -0.669715
