butane_opt
 OpenBabel08242015423D

 14 13  0  0  0  0  0  0  0  0999 V2000
   -3.9478    0.2923   -0.0345 C   0  0  0  0  0  0  0  0  0  0  0  0
   -2.6840   -0.6351    0.0791 C   0  0  0  0  0  0  0  0  0  0  0  0
   -4.8615   -0.3330    0.1060 H   0  0  0  0  0  0  0  0  0  0  0  0
   -4.0052    0.9660   -0.9492 H   0  0  0  0  0  0  0  0  0  0  0  0
   -3.8921    0.9226    0.7864 H   0  0  0  0  0  0  0  0  0  0  0  0
   -1.3931    0.1518    0.0475 C   0  0  0  0  0  0  0  0  0  0  0  0
   -2.6783   -1.2418   -0.7198 H   0  0  0  0  0  0  0  0  0  0  0  0
   -2.7422   -1.3092    1.0702 H   0  0  0  0  0  0  0  0  0  0  0  0
   -0.1911   -0.6737   -0.0013 C   0  0  0  0  0  0  0  0  0  0  0  0
   -1.3122    0.8148    0.9030 H   0  0  0  0  0  0  0  0  0  0  0  0
   -1.3949    0.7139   -0.7799 H   0  0  0  0  0  0  0  0  0  0  0  0
   -0.1625   -1.1099    0.8063 H   0  0  0  0  0  0  0  0  0  0  0  0
    0.7247   -0.0262    0.0338 H   0  0  0  0  0  0  0  0  0  0  0  0
   -0.1218   -1.4868   -0.9383 H   0  0  0  0  0  0  0  0  0  0  0  0
  1  2  1  0  0  0  0
  1  3  1  0  0  0  0
  1  5  1  0  0  0  0
  2  8  1  0  0  0  0
  4  1  1  0  0  0  0
  6  2  1  0  0  0  0
  6 10  1  0  0  0  0
  7  2  1  0  0  0  0
  9 13  1  0  0  0  0
  9  6  1  0  0  0  0
  9 12  1  0  0  0  0
 11  6  1  0  0  0  0
 14  9  1  0  0  0  0
M  END
$$$$
