butane_opt
 OpenBabel08242015423D

 14 13  0  0  0  0  0  0  0  0999 V2000
   -3.9252    0.2445    0.0234 C   0  0  0  0  0  0  0  0  0  0  0  0
   -2.6982   -0.5902    0.0210 C   0  0  0  0  0  0  0  0  0  0  0  0
   -4.9167   -0.3811   -0.1090 H   0  0  0  0  0  0  0  0  0  0  0  0
   -3.8138    0.6713   -0.7472 H   0  0  0  0  0  0  0  0  0  0  0  0
   -3.9225    1.1402    1.0448 H   0  0  0  0  0  0  0  0  0  0  0  0
   -1.4293    0.1901    0.0071 C   0  0  0  0  0  0  0  0  0  0  0  0
   -2.7945   -1.2471   -0.8237 H   0  0  0  0  0  0  0  0  0  0  0  0
   -2.7400   -1.2061    0.9604 H   0  0  0  0  0  0  0  0  0  0  0  0
   -0.1531   -0.7086    0.0486 C   0  0  0  0  0  0  0  0  0  0  0  0
   -1.4548    0.8013    0.8053 H   0  0  0  0  0  0  0  0  0  0  0  0
   -1.4542    0.9454   -0.9902 H   0  0  0  0  0  0  0  0  0  0  0  0
   -0.0928   -1.4640    0.9870 H   0  0  0  0  0  0  0  0  0  0  0  0
    0.7761   -0.0753   -0.1011 H   0  0  0  0  0  0  0  0  0  0  0  0
   -0.1468   -1.2961   -0.7567 H   0  0  0  0  0  0  0  0  0  0  0  0
  1  5  1  0  0  0  0
  2  1  1  0  0  0  0
  2  8  1  0  0  0  0
  3  1  1  0  0  0  0
  4  1  1  0  0  0  0
  6  2  1  0  0  0  0
  6  9  1  0  0  0  0
  6 10  1  0  0  0  0
  7  2  1  0  0  0  0
  9 12  1  0  0  0  0
 11  6  1  0  0  0  0
 13  9  1  0  0  0  0
 14  9  1  0  0  0  0
M  END
$$$$
