14
butane_opt
C  -3.956197   0.245706   0.047966
C  -2.695007  -0.609590   0.026575
H  -4.897580  -0.378429   0.049671
H  -4.017787   0.875612  -0.876339
H  -3.889562   0.876396   0.898514
C  -1.409164   0.232838  -0.031389
H  -2.747020  -1.269401  -0.859139
H  -2.711511  -1.227315   0.899567
C  -0.152259  -0.719192   0.067994
H  -1.468926   0.827358   0.747677
H  -1.339219   0.889127  -0.935608
H  -0.084992  -1.201484   0.870000
H   0.724279  -0.120739   0.162633
H  -0.030550  -1.551233  -0.875072
