14
butane_opt
C  -3.952858   0.254920  -0.014525
C  -2.702228  -0.596315   0.069280
H  -4.899461  -0.378632   0.000769
H  -3.905958   0.906624  -0.913005
H  -3.967020   0.865607   0.806996
C  -1.398885   0.200368   0.054745
H  -2.700484  -1.332568  -0.833738
H  -2.740963  -1.235998   0.958096
C  -0.147353  -0.706844  -0.000009
H  -1.342113   0.895226   0.934901
H  -1.490468   0.810439  -0.814213
H  -0.046197  -1.376767   0.941282
H   0.721794  -0.142022  -0.105437
H  -0.227702  -1.314477  -0.840857
