14
butane_opt
C  -3.947755   0.292254  -0.034452
C  -2.684045  -0.635089   0.079143
H  -4.861464  -0.332974   0.105951
H  -4.005201   0.965982  -0.949160
H  -3.892081   0.922563   0.786425
C  -1.393111   0.151763   0.047546
H  -2.678302  -1.241830  -0.719842
H  -2.742219  -1.309157   1.070213
C  -0.191108  -0.673671  -0.001332
H  -1.312191   0.814783   0.903001
H  -1.394886   0.713873  -0.779862
H  -0.162493  -1.109947   0.806252
H   0.724732  -0.026221   0.033822
H  -0.121831  -1.486759  -0.938250
