butane_opt
 OpenBabel08242015423D

 14 13  0  0  0  0  0  0  0  0999 V2000
   -3.9033    0.2494    0.0716 C   0  0  0  0  0  0  0  0  0  0  0  0
   -2.7164   -0.5929   -0.0172 C   0  0  0  0  0  0  0  0  0  0  0  0
   -4.8036   -0.3663   -0.0922 H   0  0  0  0  0  0  0  0  0  0  0  0
   -3.8909    0.7219   -0.7433 H   0  0  0  0  0  0  0  0  0  0  0  0
   -3.9410    1.0603    0.9707 H   0  0  0  0  0  0  0  0  0  0  0  0
   -1.4136    0.1968   -0.0257 C   0  0  0  0  0  0  0  0  0  0  0  0
   -2.7831   -1.3294   -0.8684 H   0  0  0  0  0  0  0  0  0  0  0  0
   -2.6987   -1.1805    0.8260 H   0  0  0  0  0  0  0  0  0  0  0  0
   -0.1760   -0.7148    0.0848 C   0  0  0  0  0  0  0  0  0  0  0  0
   -1.4453    0.8276    0.7766 H   0  0  0  0  0  0  0  0  0  0  0  0
   -1.4362    0.9045   -0.9753 H   0  0  0  0  0  0  0  0  0  0  0  0
   -0.0845   -1.4433    1.0534 H   0  0  0  0  0  0  0  0  0  0  0  0
    0.6975   -0.1172   -0.1773 H   0  0  0  0  0  0  0  0  0  0  0  0
   -0.1290   -1.2120   -0.6697 H   0  0  0  0  0  0  0  0  0  0  0  0
  1  5  1  0  0  0  0
  2  1  1  0  0  0  0
  2  8  1  0  0  0  0
  3  1  1  0  0  0  0
  4  1  1  0  0  0  0
  6  2  1  0  0  0  0
  6  9  1  0  0  0  0
  6 10  1  0  0  0  0
  7  2  1  0  0  0  0
  9 12  1  0  0  0  0
 11  6  1  0  0  0  0
 13  9  1  0  0  0  0
 14  9  1  0  0  0  0
M  END
$$$$
