14
butane_opt
C  -3.948371   0.282711   0.029684
C  -2.691234  -0.622278   0.057855
H  -4.853039  -0.338135  -0.223090
H  -3.898468   0.714576  -0.742806
H  -4.003483   1.114934   0.980936
C  -1.377641   0.163769  -0.033517
H  -2.748846  -1.311587  -0.841292
H  -2.607596  -1.242311   0.964832
C  -0.179407  -0.685526   0.040944
H  -1.388586   0.797152   0.811766
H  -1.416882   0.804150  -0.890745
H  -0.271283  -1.315034   0.982428
H   0.722247  -0.064912   0.027456
H  -0.190146  -1.302886  -0.762034
