14
butane_opt
C  -3.932524   0.255543   0.051909
C  -2.704085  -0.601755  -0.016576
H  -4.869773  -0.339011   0.171149
H  -4.051183   0.881357  -0.860070
H  -3.778424   0.879419   0.901683
C  -1.413772   0.196622  -0.011738
H  -2.765694  -1.266403  -0.881460
H  -2.682416  -1.220896   0.845065
C  -0.167596  -0.702286   0.065302
H  -1.405787   0.848111   0.801670
H  -1.342566   0.830639  -0.903798
H  -0.145169  -1.385836   1.014657
H   0.720598  -0.126662   0.048127
H  -0.088137  -1.352635  -0.767833
