butane_opt
 OpenBabel08242015423D

 14 13  0  0  0  0  0  0  0  0999 V2000
   -3.9440    0.2485    0.0686 C   0  0  0  0  0  0  0  0  0  0  0  0
   -2.7224   -0.5849   -0.0157 C   0  0  0  0  0  0  0  0  0  0  0  0
   -4.9288   -0.3551    0.0239 H   0  0  0  0  0  0  0  0  0  0  0  0
   -4.1138    0.7272   -0.7320 H   0  0  0  0  0  0  0  0  0  0  0  0
   -3.8819    0.9698    0.9819 H   0  0  0  0  0  0  0  0  0  0  0  0
   -1.3936    0.2034   -0.0604 C   0  0  0  0  0  0  0  0  0  0  0  0
   -2.7990   -1.2842   -0.9023 H   0  0  0  0  0  0  0  0  0  0  0  0
   -2.7392   -1.2221    0.9179 H   0  0  0  0  0  0  0  0  0  0  0  0
   -0.1293   -0.7181    0.0888 C   0  0  0  0  0  0  0  0  0  0  0  0
   -1.4259    0.8359    0.7821 H   0  0  0  0  0  0  0  0  0  0  0  0
   -1.4279    0.9175   -0.9842 H   0  0  0  0  0  0  0  0  0  0  0  0
   -0.1602   -1.3471    1.0076 H   0  0  0  0  0  0  0  0  0  0  0  0
    0.7697   -0.1294    0.1223 H   0  0  0  0  0  0  0  0  0  0  0  0
   -0.0298   -1.3886   -0.7489 H   0  0  0  0  0  0  0  0  0  0  0  0
  1  5  1  0  0  0  0
  2  1  1  0  0  0  0
  2  8  1  0  0  0  0
  3  1  1  0  0  0  0
  4  1  1  0  0  0  0
  6  2  1  0  0  0  0
  6  9  1  0  0  0  0
  6 10  1  0  0  0  0
  7  2  1  0  0  0  0
  9 13  1  0  0  0  0
  9 12  1  0  0  0  0
 11  6  1  0  0  0  0
 14  9  1  0  0  0  0
M  END
$$$$
