butane_opt
 OpenBabel08242015423D

 14 13  0  0  0  0  0  0  0  0999 V2000
   -3.9348    0.2545   -0.0206 C   0  0  0  0  0  0  0  0  0  0  0  0
   -2.7219   -0.6131    0.0912 C   0  0  0  0  0  0  0  0  0  0  0  0
   -4.8544   -0.3299    0.1109 H   0  0  0  0  0  0  0  0  0  0  0  0
   -3.9587    1.0972   -1.0219 H   0  0  0  0  0  0  0  0  0  0  0  0
   -4.0262    0.6897    0.6652 H   0  0  0  0  0  0  0  0  0  0  0  0
   -1.4000    0.2177    0.0674 C   0  0  0  0  0  0  0  0  0  0  0  0
   -2.7833   -1.3014   -0.7841 H   0  0  0  0  0  0  0  0  0  0  0  0
   -2.7782   -1.2321    0.9659 H   0  0  0  0  0  0  0  0  0  0  0  0
   -0.1404   -0.7062   -0.0244 C   0  0  0  0  0  0  0  0  0  0  0  0
   -1.4268    0.8822    0.9317 H   0  0  0  0  0  0  0  0  0  0  0  0
   -1.4278    0.7536   -0.7809 H   0  0  0  0  0  0  0  0  0  0  0  0
   -0.0476   -1.2146    0.7886 H   0  0  0  0  0  0  0  0  0  0  0  0
    0.7208   -0.1745    0.1208 H   0  0  0  0  0  0  0  0  0  0  0  0
   -0.0776   -1.4751   -0.9542 H   0  0  0  0  0  0  0  0  0  0  0  0
  1  2  1  0  0  0  0
  1  3  1  0  0  0  0
  1  5  1  0  0  0  0
  2  8  1  0  0  0  0
  4  1  1  0  0  0  0
  6  2  1  0  0  0  0
  6 10  1  0  0  0  0
  7  2  1  0  0  0  0
  9  6  1  0  0  0  0
  9 13  1  0  0  0  0
  9 12  1  0  0  0  0
 11  6  1  0  0  0  0
 14  9  1  0  0  0  0
M  END
$$$$
