butane_opt
 OpenBabel08242015423D

 14 13  0  0  0  0  0  0  0  0999 V2000
   -3.9384    0.2756   -0.0399 C   0  0  0  0  0  0  0  0  0  0  0  0
   -2.7057   -0.6285    0.0893 C   0  0  0  0  0  0  0  0  0  0  0  0
   -4.8195   -0.2202    0.0100 H   0  0  0  0  0  0  0  0  0  0  0  0
   -3.9564    1.0106   -1.0111 H   0  0  0  0  0  0  0  0  0  0  0  0
   -4.0694    0.8552    0.7548 H   0  0  0  0  0  0  0  0  0  0  0  0
   -1.3883    0.1638    0.0853 C   0  0  0  0  0  0  0  0  0  0  0  0
   -2.7686   -1.3870   -0.7846 H   0  0  0  0  0  0  0  0  0  0  0  0
   -2.6939   -1.2977    1.0091 H   0  0  0  0  0  0  0  0  0  0  0  0
   -0.1575   -0.6703   -0.0225 C   0  0  0  0  0  0  0  0  0  0  0  0
   -1.3566    0.9290    1.0016 H   0  0  0  0  0  0  0  0  0  0  0  0
   -1.4610    0.7095   -0.7513 H   0  0  0  0  0  0  0  0  0  0  0  0
   -0.0240   -1.3397    0.9014 H   0  0  0  0  0  0  0  0  0  0  0  0
    0.7227   -0.1158   -0.1733 H   0  0  0  0  0  0  0  0  0  0  0  0
   -0.3239   -1.2861   -0.8723 H   0  0  0  0  0  0  0  0  0  0  0  0
  1  3  1  0  0  0  0
  1  2  1  0  0  0  0
  1  5  1  0  0  0  0
  2  8  1  0  0  0  0
  4  1  1  0  0  0  0
  6  2  1  0  0  0  0
  6 10  1  0  0  0  0
  7  2  1  0  0  0  0
  9  6  1  0  0  0  0
  9 12  1  0  0  0  0
 11  6  1  0  0  0  0
 13  9  1  0  0  0  0
 14  9  1  0  0  0  0
M  END
$$$$
