butane_opt
 OpenBabel08242015423D

 14 13  0  0  0  0  0  0  0  0999 V2000
   -3.9416    0.2550    0.0475 C   0  0  0  0  0  0  0  0  0  0  0  0
   -2.7129   -0.6037    0.0232 C   0  0  0  0  0  0  0  0  0  0  0  0
   -4.8431   -0.3552    0.0347 H   0  0  0  0  0  0  0  0  0  0  0  0
   -3.9897    0.8533   -0.8538 H   0  0  0  0  0  0  0  0  0  0  0  0
   -3.9476    0.9619    0.9229 H   0  0  0  0  0  0  0  0  0  0  0  0
   -1.4002    0.2020   -0.0316 C   0  0  0  0  0  0  0  0  0  0  0  0
   -2.8276   -1.3567   -0.8733 H   0  0  0  0  0  0  0  0  0  0  0  0
   -2.6768   -1.2137    0.9019 H   0  0  0  0  0  0  0  0  0  0  0  0
   -0.1533   -0.7063    0.0621 C   0  0  0  0  0  0  0  0  0  0  0  0
   -1.4288    0.8468    0.7760 H   0  0  0  0  0  0  0  0  0  0  0  0
   -1.3896    0.8662   -0.9355 H   0  0  0  0  0  0  0  0  0  0  0  0
   -0.1488   -1.3092    0.9315 H   0  0  0  0  0  0  0  0  0  0  0  0
    0.7588   -0.1097    0.1250 H   0  0  0  0  0  0  0  0  0  0  0  0
   -0.0334   -1.4164   -0.8098 H   0  0  0  0  0  0  0  0  0  0  0  0
  1  5  1  0  0  0  0
  2  1  1  0  0  0  0
  2  8  1  0  0  0  0
  3  1  1  0  0  0  0
  4  1  1  0  0  0  0
  6  2  1  0  0  0  0
  6  9  1  0  0  0  0
  6 10  1  0  0  0  0
  7  2  1  0  0  0  0
  9 13  1  0  0  0  0
  9 12  1  0  0  0  0
 11  6  1  0  0  0  0
 14  9  1  0  0  0  0
M  END
$$$$
