14
butane_opt
C  -3.938424   0.275612  -0.039888
C  -2.705693  -0.628528   0.089286
H  -4.819488  -0.220241   0.010024
H  -3.956395   1.010620  -1.011127
H  -4.069383   0.855179   0.754824
C  -1.388320   0.163774   0.085310
H  -2.768560  -1.386953  -0.784572
H  -2.693914  -1.297709   1.009093
C  -0.157529  -0.670304  -0.022485
H  -1.356585   0.928996   1.001597
H  -1.460975   0.709450  -0.751339
H  -0.024007  -1.339712   0.901439
H   0.722710  -0.115800  -0.173335
H  -0.323949  -1.286066  -0.872268
