14
butane_opt
C  -3.939945   0.278377   0.040958
C  -2.691644  -0.631941   0.025526
H  -4.789357  -0.319814  -0.086509
H  -3.879330   0.686077  -0.702988
H  -4.008500   1.108368   0.989559
C  -1.418096   0.178438  -0.033980
H  -2.647159  -1.354071  -0.816198
H  -2.623630  -1.301188   0.921392
C  -0.177711  -0.673239   0.045470
H  -1.419816   0.850267   0.828158
H  -1.319191   0.841365  -0.949128
H  -0.219374  -1.404964   1.060548
H   0.716804  -0.105282   0.035913
H  -0.117439  -1.288414  -0.751006
