14
butane_opt
C  -3.929012   0.248787   0.078324
C  -2.696376  -0.583990  -0.039441
H  -4.852264  -0.374078   0.288093
H  -4.053582   0.929151  -0.826040
H  -3.798402   0.834091   0.883906
C  -1.411537   0.195965  -0.045539
H  -2.755770  -1.371545  -0.971549
H  -2.640139  -1.156388   0.760830
C  -0.170593  -0.720416   0.104533
H  -1.479085   0.808356   0.739459
H  -1.405678   0.839669  -0.945678
H  -0.163360  -1.303988   0.976731
H   0.764628  -0.061530   0.089900
H  -0.143029  -1.292793  -0.727299
