butane_opt
 OpenBabel08242015423D

 14 13  0  0  0  0  0  0  0  0999 V2000
   -3.9290    0.2488    0.0783 C   0  0  0  0  0  0  0  0  0  0  0  0
   -2.6964   -0.5840   -0.0394 C   0  0  0  0  0  0  0  0  0  0  0  0
   -4.8523   -0.3741    0.2881 H   0  0  0  0  0  0  0  0  0  0  0  0
   -4.0536    0.9292   -0.8260 H   0  0  0  0  0  0  0  0  0  0  0  0
   -3.7984    0.8341    0.8839 H   0  0  0  0  0  0  0  0  0  0  0  0
   -1.4115    0.1960   -0.0455 C   0  0  0  0  0  0  0  0  0  0  0  0
   -2.7558   -1.3715   -0.9715 H   0  0  0  0  0  0  0  0  0  0  0  0
   -2.6401   -1.1564    0.7608 H   0  0  0  0  0  0  0  0  0  0  0  0
   -0.1706   -0.7204    0.1045 C   0  0  0  0  0  0  0  0  0  0  0  0
   -1.4791    0.8084    0.7395 H   0  0  0  0  0  0  0  0  0  0  0  0
   -1.4057    0.8397   -0.9457 H   0  0  0  0  0  0  0  0  0  0  0  0
   -0.1634   -1.3040    0.9767 H   0  0  0  0  0  0  0  0  0  0  0  0
    0.7646   -0.0615    0.0899 H   0  0  0  0  0  0  0  0  0  0  0  0
   -0.1430   -1.2928   -0.7273 H   0  0  0  0  0  0  0  0  0  0  0  0
  1  3  1  0  0  0  0
  1  5  1  0  0  0  0
  2  1  1  0  0  0  0
  2  8  1  0  0  0  0
  4  1  1  0  0  0  0
  6  2  1  0  0  0  0
  6  9  1  0  0  0  0
  6 10  1  0  0  0  0
  7  2  1  0  0  0  0
  9 12  1  0  0  0  0
 11  6  1  0  0  0  0
 13  9  1  0  0  0  0
 14  9  1  0  0  0  0
M  END
$$$$
