butane_opt
 OpenBabel08242015423D

 14 13  0  0  0  0  0  0  0  0999 V2000
   -3.9256    0.2645   -0.0372 C   0  0  0  0  0  0  0  0  0  0  0  0
   -2.6890   -0.6291    0.0931 C   0  0  0  0  0  0  0  0  0  0  0  0
   -4.8069   -0.3173   -0.0863 H   0  0  0  0  0  0  0  0  0  0  0  0
   -3.9071    0.9541   -0.9864 H   0  0  0  0  0  0  0  0  0  0  0  0
   -4.0632    1.0090    0.8039 H   0  0  0  0  0  0  0  0  0  0  0  0
   -1.4203    0.1646    0.0801 C   0  0  0  0  0  0  0  0  0  0  0  0
   -2.6449   -1.2605   -0.6986 H   0  0  0  0  0  0  0  0  0  0  0  0
   -2.7214   -1.3108    1.0476 H   0  0  0  0  0  0  0  0  0  0  0  0
   -0.1688   -0.6669   -0.0384 C   0  0  0  0  0  0  0  0  0  0  0  0
   -1.3608    0.9434    1.0303 H   0  0  0  0  0  0  0  0  0  0  0  0
   -1.4280    0.6953   -0.7654 H   0  0  0  0  0  0  0  0  0  0  0  0
   -0.0794   -1.4007    0.9133 H   0  0  0  0  0  0  0  0  0  0  0  0
    0.7291   -0.1133   -0.1144 H   0  0  0  0  0  0  0  0  0  0  0  0
   -0.2961   -1.2627   -0.8657 H   0  0  0  0  0  0  0  0  0  0  0  0
  1  2  1  0  0  0  0
  1  5  1  0  0  0  0
  2  8  1  0  0  0  0
  3  1  1  0  0  0  0
  4  1  1  0  0  0  0
  6  2  1  0  0  0  0
  6 10  1  0  0  0  0
  7  2  1  0  0  0  0
  9  6  1  0  0  0  0
  9 12  1  0  0  0  0
 11  6  1  0  0  0  0
 13  9  1  0  0  0  0
 14  9  1  0  0  0  0
M  END
$$$$
