14
butane_opt
C  -3.939242   0.275904   0.073076
C  -2.674471  -0.623872   0.009508
H  -4.830126  -0.301910  -0.089373
H  -4.004152   0.814831  -0.800966
H  -4.011200   1.032347   0.964899
C  -1.414594   0.143849  -0.046169
H  -2.770908  -1.276248  -0.872368
H  -2.588885  -1.176297   0.852587
C  -0.183379  -0.674362   0.073326
H  -1.433348   0.736878   0.752652
H  -1.286053   0.880609  -0.996185
H  -0.264189  -1.274462   0.978953
H   0.845975  -0.014967   0.129487
H  -0.143256  -1.351269  -0.803397
