14
butane_opt
C  -3.972677   0.259646  -0.014360
C  -2.686051  -0.617817   0.085643
H  -4.906272  -0.325546  -0.146227
H  -3.811744   0.816339  -0.883160
H  -4.081923   1.059687   0.923346
C  -1.401720   0.186682   0.031291
H  -2.715082  -1.252471  -0.748478
H  -2.673293  -1.258102   1.001786
C  -0.157948  -0.698041   0.001532
H  -1.361138   0.919278   0.883563
H  -1.365538   0.721694  -0.799585
H  -0.089209  -1.360691   0.924026
H   0.799882  -0.082642  -0.111312
H  -0.193997  -1.277750  -0.840258
