14
butane_opt
C  -3.935207   0.268073   0.009961
C  -2.695640  -0.623393   0.035691
H  -4.909521  -0.360213   0.165470
H  -4.018055   1.101952  -1.009649
H  -3.970213   0.780914   0.776049
C  -1.413720   0.173420   0.028955
H  -2.660314  -1.288446  -0.787588
H  -2.683254  -1.295428   0.961116
C  -0.165738  -0.680262   0.013629
H  -1.368535   0.961695   0.964500
H  -1.368053   0.752851  -0.771573
H  -0.092194  -1.295721   0.864769
H   0.710482  -0.082733   0.063995
H  -0.133578  -1.407115  -0.869508
