butane_opt
 OpenBabel08242015423D

 14 13  0  0  0  0  0  0  0  0999 V2000
   -3.9727    0.2596   -0.0144 C   0  0  0  0  0  0  0  0  0  0  0  0
   -2.6861   -0.6178    0.0856 C   0  0  0  0  0  0  0  0  0  0  0  0
   -4.9063   -0.3255   -0.1462 H   0  0  0  0  0  0  0  0  0  0  0  0
   -3.8117    0.8163   -0.8832 H   0  0  0  0  0  0  0  0  0  0  0  0
   -4.0819    1.0597    0.9233 H   0  0  0  0  0  0  0  0  0  0  0  0
   -1.4017    0.1867    0.0313 C   0  0  0  0  0  0  0  0  0  0  0  0
   -2.7151   -1.2525   -0.7485 H   0  0  0  0  0  0  0  0  0  0  0  0
   -2.6733   -1.2581    1.0018 H   0  0  0  0  0  0  0  0  0  0  0  0
   -0.1579   -0.6980    0.0015 C   0  0  0  0  0  0  0  0  0  0  0  0
   -1.3611    0.9193    0.8836 H   0  0  0  0  0  0  0  0  0  0  0  0
   -1.3655    0.7217   -0.7996 H   0  0  0  0  0  0  0  0  0  0  0  0
   -0.0892   -1.3607    0.9240 H   0  0  0  0  0  0  0  0  0  0  0  0
    0.7999   -0.0826   -0.1113 H   0  0  0  0  0  0  0  0  0  0  0  0
   -0.1940   -1.2777   -0.8403 H   0  0  0  0  0  0  0  0  0  0  0  0
  1  2  1  0  0  0  0
  1  5  1  0  0  0  0
  2  8  1  0  0  0  0
  3  1  1  0  0  0  0
  4  1  1  0  0  0  0
  6  2  1  0  0  0  0
  6 10  1  0  0  0  0
  7  2  1  0  0  0  0
  9  6  1  0  0  0  0
  9 12  1  0  0  0  0
 11  6  1  0  0  0  0
 13  9  1  0  0  0  0
 14  9  1  0  0  0  0
M  END
$$$$
