butane_opt
 OpenBabel08242015423D

 14 13  0  0  0  0  0  0  0  0999 V2000
   -3.9392    0.2759    0.0731 C   0  0  0  0  0  0  0  0  0  0  0  0
   -2.6745   -0.6239    0.0095 C   0  0  0  0  0  0  0  0  0  0  0  0
   -4.8301   -0.3019   -0.0894 H   0  0  0  0  0  0  0  0  0  0  0  0
   -4.0042    0.8148   -0.8010 H   0  0  0  0  0  0  0  0  0  0  0  0
   -4.0112    1.0323    0.9649 H   0  0  0  0  0  0  0  0  0  0  0  0
   -1.4146    0.1438   -0.0462 C   0  0  0  0  0  0  0  0  0  0  0  0
   -2.7709   -1.2762   -0.8724 H   0  0  0  0  0  0  0  0  0  0  0  0
   -2.5889   -1.1763    0.8526 H   0  0  0  0  0  0  0  0  0  0  0  0
   -0.1834   -0.6744    0.0733 C   0  0  0  0  0  0  0  0  0  0  0  0
   -1.4333    0.7369    0.7527 H   0  0  0  0  0  0  0  0  0  0  0  0
   -1.2861    0.8806   -0.9962 H   0  0  0  0  0  0  0  0  0  0  0  0
   -0.2642   -1.2745    0.9790 H   0  0  0  0  0  0  0  0  0  0  0  0
    0.8460   -0.0150    0.1295 H   0  0  0  0  0  0  0  0  0  0  0  0
   -0.1433   -1.3513   -0.8034 H   0  0  0  0  0  0  0  0  0  0  0  0
  1  5  1  0  0  0  0
  2  1  1  0  0  0  0
  2  8  1  0  0  0  0
  3  1  1  0  0  0  0
  4  1  1  0  0  0  0
  6  2  1  0  0  0  0
  6  9  1  0  0  0  0
  6 10  1  0  0  0  0
  7  2  1  0  0  0  0
  9 13  1  0  0  0  0
  9 12  1  0  0  0  0
 11  6  1  0  0  0  0
 14  9  1  0  0  0  0
M  END
$$$$
