butane_opt
 OpenBabel08242015423D

 14 13  0  0  0  0  0  0  0  0999 V2000
   -3.9352    0.2681    0.0100 C   0  0  0  0  0  0  0  0  0  0  0  0
   -2.6956   -0.6234    0.0357 C   0  0  0  0  0  0  0  0  0  0  0  0
   -4.9095   -0.3602    0.1655 H   0  0  0  0  0  0  0  0  0  0  0  0
   -4.0181    1.1020   -1.0096 H   0  0  0  0  0  0  0  0  0  0  0  0
   -3.9702    0.7809    0.7760 H   0  0  0  0  0  0  0  0  0  0  0  0
   -1.4137    0.1734    0.0290 C   0  0  0  0  0  0  0  0  0  0  0  0
   -2.6603   -1.2884   -0.7876 H   0  0  0  0  0  0  0  0  0  0  0  0
   -2.6833   -1.2954    0.9611 H   0  0  0  0  0  0  0  0  0  0  0  0
   -0.1657   -0.6803    0.0136 C   0  0  0  0  0  0  0  0  0  0  0  0
   -1.3685    0.9617    0.9645 H   0  0  0  0  0  0  0  0  0  0  0  0
   -1.3681    0.7529   -0.7716 H   0  0  0  0  0  0  0  0  0  0  0  0
   -0.0922   -1.2957    0.8648 H   0  0  0  0  0  0  0  0  0  0  0  0
    0.7105   -0.0827    0.0640 H   0  0  0  0  0  0  0  0  0  0  0  0
   -0.1336   -1.4071   -0.8695 H   0  0  0  0  0  0  0  0  0  0  0  0
  1  2  1  0  0  0  0
  1  3  1  0  0  0  0
  1  5  1  0  0  0  0
  2  8  1  0  0  0  0
  4  1  1  0  0  0  0
  6  2  1  0  0  0  0
  6 10  1  0  0  0  0
  7  2  1  0  0  0  0
  9  6  1  0  0  0  0
  9 13  1  0  0  0  0
  9 12  1  0  0  0  0
 11  6  1  0  0  0  0
 14  9  1  0  0  0  0
M  END
$$$$
