butane_opt
 OpenBabel08242015423D

 14 13  0  0  0  0  0  0  0  0999 V2000
   -3.9326    0.2496   -0.0091 C   0  0  0  0  0  0  0  0  0  0  0  0
   -2.7067   -0.5842    0.0779 C   0  0  0  0  0  0  0  0  0  0  0  0
   -4.8941   -0.4070    0.0536 H   0  0  0  0  0  0  0  0  0  0  0  0
   -3.8389    0.9267   -0.9425 H   0  0  0  0  0  0  0  0  0  0  0  0
   -3.8523    0.8199    0.8330 H   0  0  0  0  0  0  0  0  0  0  0  0
   -1.4232    0.1996    0.0237 C   0  0  0  0  0  0  0  0  0  0  0  0
   -2.7218   -1.1975   -0.7326 H   0  0  0  0  0  0  0  0  0  0  0  0
   -2.6873   -1.2476    1.0130 H   0  0  0  0  0  0  0  0  0  0  0  0
   -0.1632   -0.7198    0.0032 C   0  0  0  0  0  0  0  0  0  0  0  0
   -1.4118    0.7839    0.8644 H   0  0  0  0  0  0  0  0  0  0  0  0
   -1.3747    0.8495   -0.8745 H   0  0  0  0  0  0  0  0  0  0  0  0
   -0.1609   -1.0842    0.7469 H   0  0  0  0  0  0  0  0  0  0  0  0
    0.7108   -0.1473    0.2762 H   0  0  0  0  0  0  0  0  0  0  0  0
   -0.0778   -1.5220   -0.9784 H   0  0  0  0  0  0  0  0  0  0  0  0
  1  3  1  0  0  0  0
  1  2  1  0  0  0  0
  1  5  1  0  0  0  0
  2  8  1  0  0  0  0
  4  1  1  0  0  0  0
  6  2  1  0  0  0  0
  6 10  1  0  0  0  0
  7  2  1  0  0  0  0
  9  6  1  0  0  0  0
  9 13  1  0  0  0  0
  9 12  1  0  0  0  0
 11  6  1  0  0  0  0
 14  9  1  0  0  0  0
M  END
$$$$
