butane_opt
 OpenBabel08242015423D

 14 13  0  0  0  0  0  0  0  0999 V2000
   -3.9334    0.2824   -0.0097 C   0  0  0  0  0  0  0  0  0  0  0  0
   -2.6921   -0.6365    0.0531 C   0  0  0  0  0  0  0  0  0  0  0  0
   -4.8331   -0.3745    0.3132 H   0  0  0  0  0  0  0  0  0  0  0  0
   -3.9917    1.1077   -1.0695 H   0  0  0  0  0  0  0  0  0  0  0  0
   -3.8705    0.7800    0.7064 H   0  0  0  0  0  0  0  0  0  0  0  0
   -1.4115    0.1778    0.0525 C   0  0  0  0  0  0  0  0  0  0  0  0
   -2.6669   -1.3068   -0.8224 H   0  0  0  0  0  0  0  0  0  0  0  0
   -2.6703   -1.2076    0.9201 H   0  0  0  0  0  0  0  0  0  0  0  0
   -0.1826   -0.6845    0.0171 C   0  0  0  0  0  0  0  0  0  0  0  0
   -1.4144    0.8253    0.9110 H   0  0  0  0  0  0  0  0  0  0  0  0
   -1.2703    0.7604   -0.7918 H   0  0  0  0  0  0  0  0  0  0  0  0
   -0.1525   -1.1704    0.8081 H   0  0  0  0  0  0  0  0  0  0  0  0
    0.7277   -0.0835    0.0138 H   0  0  0  0  0  0  0  0  0  0  0  0
   -0.2428   -1.4673   -0.9419 H   0  0  0  0  0  0  0  0  0  0  0  0
  1  2  1  0  0  0  0
  1  3  1  0  0  0  0
  1  5  1  0  0  0  0
  2  8  1  0  0  0  0
  4  1  1  0  0  0  0
  6  2  1  0  0  0  0
  6 10  1  0  0  0  0
  7  2  1  0  0  0  0
  9  6  1  0  0  0  0
  9 12  1  0  0  0  0
 11  6  1  0  0  0  0
 13  9  1  0  0  0  0
 14  9  1  0  0  0  0
M  END
$$$$
