14
butane_opt
C  -3.933373   0.282405  -0.009659
C  -2.692113  -0.636510   0.053101
H  -4.833126  -0.374506   0.313163
H  -3.991710   1.107660  -1.069529
H  -3.870532   0.780019   0.706385
C  -1.411517   0.177833   0.052474
H  -2.666936  -1.306764  -0.822356
H  -2.670301  -1.207639   0.920060
C  -0.182627  -0.684512   0.017108
H  -1.414433   0.825285   0.910973
H  -1.270258   0.760435  -0.791793
H  -0.152510  -1.170419   0.808134
H   0.727719  -0.083536   0.013808
H  -0.242817  -1.467324  -0.941938
