14
butane_opt
C  -3.938433   0.281160  -0.043423
C  -2.685589  -0.634598   0.118312
H  -4.831095  -0.271267  -0.227319
H  -3.905205   0.837353  -0.909821
H  -4.145829   1.029729   0.856491
C  -1.419943   0.160438   0.067689
H  -2.673827  -1.179661  -0.673420
H  -2.733621  -1.441390   1.116967
C  -0.166461  -0.664819  -0.033711
H  -1.382330   0.857819   0.960982
H  -1.351685   0.703678  -0.805124
H  -0.104612  -1.254035   0.810532
H   0.820443  -0.030363  -0.041744
H  -0.205364  -1.413635  -0.962737
