14
butane_opt
C  -3.970180   0.244725   0.066640
C  -2.699792  -0.599759   0.001242
H  -4.876184  -0.359701  -0.127430
H  -3.933817   0.723740  -0.736850
H  -3.947953   1.065462   0.991465
C  -1.406469   0.218746  -0.028360
H  -2.745909  -1.345039  -0.945601
H  -2.793340  -1.206733   0.847775
C  -0.128268  -0.717760   0.062396
H  -1.416072   0.873128   0.821276
H  -1.436748   0.835116  -0.938358
H  -0.107299  -1.534329   1.119964
H   0.760379  -0.127810  -0.140768
H  -0.069137  -1.144776  -0.635320
