butane_opt
 OpenBabel08242015423D

 14 13  0  0  0  0  0  0  0  0999 V2000
   -3.9448    0.2799    0.0595 C   0  0  0  0  0  0  0  0  0  0  0  0
   -2.6635   -0.6459    0.0002 C   0  0  0  0  0  0  0  0  0  0  0  0
   -4.8525   -0.3235   -0.0426 H   0  0  0  0  0  0  0  0  0  0  0  0
   -3.9912    0.7580   -0.7389 H   0  0  0  0  0  0  0  0  0  0  0  0
   -3.9765    1.1705    1.0812 H   0  0  0  0  0  0  0  0  0  0  0  0
   -1.3999    0.1690   -0.0478 C   0  0  0  0  0  0  0  0  0  0  0  0
   -2.6851   -1.3662   -0.8918 H   0  0  0  0  0  0  0  0  0  0  0  0
   -2.6536   -1.2615    0.8497 H   0  0  0  0  0  0  0  0  0  0  0  0
   -0.1977   -0.6785    0.0935 C   0  0  0  0  0  0  0  0  0  0  0  0
   -1.3850    0.7702    0.7425 H   0  0  0  0  0  0  0  0  0  0  0  0
   -1.4076    0.9157   -1.0617 H   0  0  0  0  0  0  0  0  0  0  0  0
   -0.1316   -1.3403    0.9736 H   0  0  0  0  0  0  0  0  0  0  0  0
    0.7310   -0.0032    0.0454 H   0  0  0  0  0  0  0  0  0  0  0  0
   -0.2067   -1.2798   -0.7406 H   0  0  0  0  0  0  0  0  0  0  0  0
  1  5  1  0  0  0  0
  2  1  1  0  0  0  0
  2  8  1  0  0  0  0
  3  1  1  0  0  0  0
  4  1  1  0  0  0  0
  6  2  1  0  0  0  0
  6  9  1  0  0  0  0
  6 10  1  0  0  0  0
  7  2  1  0  0  0  0
  9 12  1  0  0  0  0
 11  6  1  0  0  0  0
 13  9  1  0  0  0  0
 14  9  1  0  0  0  0
M  END
$$$$
