14
butane_opt
C  -3.930217   0.258446   0.072554
C  -2.725166  -0.589676  -0.000750
H  -4.870408  -0.391669   0.048645
H  -3.985907   0.865854  -0.778676
H  -3.936392   0.943096   0.921416
C  -1.396242   0.184374  -0.043334
H  -2.754586  -1.323131  -0.908757
H  -2.769086  -1.233165   0.902363
C  -0.144160  -0.699989   0.085454
H  -1.503967   0.766862   0.720935
H  -1.357889   0.908429  -1.064292
H  -0.211782  -1.214833   0.909696
H   0.742440  -0.148030   0.168954
H  -0.023192  -1.489817  -0.857434
