14
butane_opt
C  -3.946812   0.281148  -0.015084
C  -2.707508  -0.648910   0.096226
H  -4.839837  -0.267566   0.127719
H  -3.952509   0.956904  -0.988877
H  -4.006568   0.889708   0.792530
C  -1.404652   0.189972   0.017633
H  -2.754377  -1.272889  -0.697654
H  -2.693190  -1.266715   0.945938
C  -0.165735  -0.691993   0.001038
H  -1.283091   0.867492   0.862916
H  -1.398214   0.791533  -0.885840
H  -0.259156  -1.085871   0.756114
H   0.824776  -0.047700   0.287051
H   0.016463  -1.589028  -0.981763
