butane_opt
 OpenBabel08242015423D

 14 13  0  0  0  0  0  0  0  0999 V2000
   -3.9467    0.2582    0.0411 C   0  0  0  0  0  0  0  0  0  0  0  0
   -2.7121   -0.6023    0.0070 C   0  0  0  0  0  0  0  0  0  0  0  0
   -4.8486   -0.3245    0.1570 H   0  0  0  0  0  0  0  0  0  0  0  0
   -4.0438    0.9145   -0.8928 H   0  0  0  0  0  0  0  0  0  0  0  0
   -3.9237    0.8555    0.8306 H   0  0  0  0  0  0  0  0  0  0  0  0
   -1.4018    0.1922    0.0002 C   0  0  0  0  0  0  0  0  0  0  0  0
   -2.7849   -1.3430   -0.8813 H   0  0  0  0  0  0  0  0  0  0  0  0
   -2.6718   -1.1796    0.8697 H   0  0  0  0  0  0  0  0  0  0  0  0
   -0.1480   -0.7052    0.0564 C   0  0  0  0  0  0  0  0  0  0  0  0
   -1.4324    0.8421    0.8420 H   0  0  0  0  0  0  0  0  0  0  0  0
   -1.3542    0.8222   -0.9159 H   0  0  0  0  0  0  0  0  0  0  0  0
   -0.1306   -1.3341    0.9495 H   0  0  0  0  0  0  0  0  0  0  0  0
    0.7777   -0.0681    0.0000 H   0  0  0  0  0  0  0  0  0  0  0  0
   -0.1088   -1.3645   -0.7890 H   0  0  0  0  0  0  0  0  0  0  0  0
  1  3  1  0  0  0  0
  1  5  1  0  0  0  0
  2  1  1  0  0  0  0
  2  8  1  0  0  0  0
  4  1  1  0  0  0  0
  6  2  1  0  0  0  0
  6  9  1  0  0  0  0
  6 10  1  0  0  0  0
  7  2  1  0  0  0  0
  9 12  1  0  0  0  0
 11  6  1  0  0  0  0
 13  9  1  0  0  0  0
 14  9  1  0  0  0  0
M  END
$$$$
