butane_opt
 OpenBabel08242015423D

 14 13  0  0  0  0  0  0  0  0999 V2000
   -3.9396    0.2414    0.0582 C   0  0  0  0  0  0  0  0  0  0  0  0
   -2.6918   -0.5742    0.0033 C   0  0  0  0  0  0  0  0  0  0  0  0
   -4.8142   -0.3429    0.1285 H   0  0  0  0  0  0  0  0  0  0  0  0
   -3.9742    0.8056   -0.7863 H   0  0  0  0  0  0  0  0  0  0  0  0
   -3.8326    0.9174    0.9260 H   0  0  0  0  0  0  0  0  0  0  0  0
   -1.4194    0.1839   -0.0432 C   0  0  0  0  0  0  0  0  0  0  0  0
   -2.7575   -1.2888   -0.9102 H   0  0  0  0  0  0  0  0  0  0  0  0
   -2.7613   -1.1887    0.9237 H   0  0  0  0  0  0  0  0  0  0  0  0
   -0.1584   -0.7051    0.0682 C   0  0  0  0  0  0  0  0  0  0  0  0
   -1.4842    0.7448    0.7545 H   0  0  0  0  0  0  0  0  0  0  0  0
   -1.3827    0.9666   -1.0158 H   0  0  0  0  0  0  0  0  0  0  0  0
   -0.2279   -1.2362    0.9276 H   0  0  0  0  0  0  0  0  0  0  0  0
    0.7821   -0.1145    0.2914 H   0  0  0  0  0  0  0  0  0  0  0  0
   -0.0634   -1.4889   -0.8364 H   0  0  0  0  0  0  0  0  0  0  0  0
  1  3  1  0  0  0  0
  1  5  1  0  0  0  0
  2  1  1  0  0  0  0
  2  8  1  0  0  0  0
  4  1  1  0  0  0  0
  6  2  1  0  0  0  0
  6  9  1  0  0  0  0
  6 10  1  0  0  0  0
  7  2  1  0  0  0  0
  9 13  1  0  0  0  0
  9 12  1  0  0  0  0
 11  6  1  0  0  0  0
 14  9  1  0  0  0  0
M  END
$$$$
