butane_opt
 OpenBabel08242015423D

 14 13  0  0  0  0  0  0  0  0999 V2000
   -3.9463    0.2746    0.0060 C   0  0  0  0  0  0  0  0  0  0  0  0
   -2.7012   -0.6297    0.0308 C   0  0  0  0  0  0  0  0  0  0  0  0
   -4.8669   -0.3299    0.1968 H   0  0  0  0  0  0  0  0  0  0  0  0
   -4.0462    1.0212   -0.9546 H   0  0  0  0  0  0  0  0  0  0  0  0
   -3.9766    0.8594    0.8183 H   0  0  0  0  0  0  0  0  0  0  0  0
   -1.4008    0.1772    0.0252 C   0  0  0  0  0  0  0  0  0  0  0  0
   -2.7119   -1.2747   -0.8069 H   0  0  0  0  0  0  0  0  0  0  0  0
   -2.7702   -1.2963    0.9533 H   0  0  0  0  0  0  0  0  0  0  0  0
   -0.1531   -0.6859    0.0273 C   0  0  0  0  0  0  0  0  0  0  0  0
   -1.3948    0.9212    0.9492 H   0  0  0  0  0  0  0  0  0  0  0  0
   -1.3615    0.7490   -0.8395 H   0  0  0  0  0  0  0  0  0  0  0  0
   -0.1026   -1.2602    0.9096 H   0  0  0  0  0  0  0  0  0  0  0  0
    0.7968   -0.0948   -0.0030 H   0  0  0  0  0  0  0  0  0  0  0  0
   -0.1759   -1.3919   -0.8672 H   0  0  0  0  0  0  0  0  0  0  0  0
  1  2  1  0  0  0  0
  1  3  1  0  0  0  0
  1  5  1  0  0  0  0
  2  8  1  0  0  0  0
  4  1  1  0  0  0  0
  6  9  1  0  0  0  0
  6  2  1  0  0  0  0
  6 10  1  0  0  0  0
  7  2  1  0  0  0  0
  9 12  1  0  0  0  0
 11  6  1  0  0  0  0
 13  9  1  0  0  0  0
 14  9  1  0  0  0  0
M  END
$$$$
