14
butane_opt
C  -3.932188   0.251591  -0.008872
C  -2.700706  -0.596593   0.062027
H  -4.856205  -0.321629   0.051683
H  -3.913922   0.923303  -0.945906
H  -3.930706   0.839450   0.808986
C  -1.420949   0.182526   0.040989
H  -2.727890  -1.208585  -0.754980
H  -2.734733  -1.295258   1.012270
C  -0.154172  -0.699504   0.011144
H  -1.392179   0.915278   0.921111
H  -1.451620   0.808997  -0.864986
H  -0.136983  -1.216722   0.828243
H   0.751141  -0.106719   0.031445
H  -0.137124  -1.470485  -0.930994
