butane_opt
 OpenBabel08242015423D

 14 13  0  0  0  0  0  0  0  0999 V2000
   -3.9155    0.2483    0.0636 C   0  0  0  0  0  0  0  0  0  0  0  0
   -2.6899   -0.6084   -0.0275 C   0  0  0  0  0  0  0  0  0  0  0  0
   -4.8565   -0.3684    0.2926 H   0  0  0  0  0  0  0  0  0  0  0  0
   -4.1311    0.9668   -0.8579 H   0  0  0  0  0  0  0  0  0  0  0  0
   -3.8735    0.8504    0.8988 H   0  0  0  0  0  0  0  0  0  0  0  0
   -1.4226    0.1983   -0.0197 C   0  0  0  0  0  0  0  0  0  0  0  0
   -2.6917   -1.3649   -0.9624 H   0  0  0  0  0  0  0  0  0  0  0  0
   -2.6502   -1.1327    0.7528 H   0  0  0  0  0  0  0  0  0  0  0  0
   -0.1804   -0.6984    0.0709 C   0  0  0  0  0  0  0  0  0  0  0  0
   -1.4584    0.8886    0.8517 H   0  0  0  0  0  0  0  0  0  0  0  0
   -1.3332    0.8540   -0.9773 H   0  0  0  0  0  0  0  0  0  0  0  0
   -0.1788   -1.4615    1.0707 H   0  0  0  0  0  0  0  0  0  0  0  0
    0.7598   -0.1291    0.0715 H   0  0  0  0  0  0  0  0  0  0  0  0
   -0.0967   -1.2550   -0.7370 H   0  0  0  0  0  0  0  0  0  0  0  0
  1  3  1  0  0  0  0
  1  5  1  0  0  0  0
  2  6  1  0  0  0  0
  2  1  1  0  0  0  0
  2  8  1  0  0  0  0
  4  1  1  0  0  0  0
  6  9  1  0  0  0  0
  6 10  1  0  0  0  0
  7  2  1  0  0  0  0
  9 13  1  0  0  0  0
  9 12  1  0  0  0  0
 11  6  1  0  0  0  0
 14  9  1  0  0  0  0
M  END
$$$$
