butane_opt
 OpenBabel08242015423D

 14 13  0  0  0  0  0  0  0  0999 V2000
   -3.9734    0.2769   -0.0233 C   0  0  0  0  0  0  0  0  0  0  0  0
   -2.6792   -0.6423    0.0976 C   0  0  0  0  0  0  0  0  0  0  0  0
   -4.8393   -0.2471   -0.1007 H   0  0  0  0  0  0  0  0  0  0  0  0
   -3.8647    0.8465   -0.9252 H   0  0  0  0  0  0  0  0  0  0  0  0
   -4.0939    0.9758    0.8293 H   0  0  0  0  0  0  0  0  0  0  0  0
   -1.4007    0.1870    0.0576 C   0  0  0  0  0  0  0  0  0  0  0  0
   -2.6476   -1.4202   -0.8148 H   0  0  0  0  0  0  0  0  0  0  0  0
   -2.6893   -1.2744    0.9816 H   0  0  0  0  0  0  0  0  0  0  0  0
   -0.1659   -0.6773   -0.0082 C   0  0  0  0  0  0  0  0  0  0  0  0
   -1.3256    0.9152    0.9101 H   0  0  0  0  0  0  0  0  0  0  0  0
   -1.3351    0.7800   -0.8109 H   0  0  0  0  0  0  0  0  0  0  0  0
   -0.0460   -1.3808    0.8945 H   0  0  0  0  0  0  0  0  0  0  0  0
    0.7340   -0.1058   -0.1820 H   0  0  0  0  0  0  0  0  0  0  0  0
   -0.2872   -1.2825   -0.8119 H   0  0  0  0  0  0  0  0  0  0  0  0
  1  2  1  0  0  0  0
  1  5  1  0  0  0  0
  2  8  1  0  0  0  0
  3  1  1  0  0  0  0
  4  1  1  0  0  0  0
  6  2  1  0  0  0  0
  6 10  1  0  0  0  0
  7  2  1  0  0  0  0
  9  6  1  0  0  0  0
  9 12  1  0  0  0  0
 11  6  1  0  0  0  0
 13  9  1  0  0  0  0
 14  9  1  0  0  0  0
M  END
$$$$
