14
butane_opt
C  -3.943707   0.242410  -0.028288
C  -2.728756  -0.608712   0.092844
H  -4.856740  -0.338435   0.002262
H  -3.990123   0.985467  -0.975510
H  -3.939878   0.855650   0.771480
C  -1.398321   0.228972   0.041942
H  -2.760400  -1.158684  -0.658360
H  -2.713979  -1.403370   1.114976
C  -0.134669  -0.717689  -0.014704
H  -1.390175   0.951741   0.939540
H  -1.386899   0.802324  -0.855956
H  -0.142650  -1.073608   0.740995
H   0.715310  -0.198708   0.220985
H  -0.075999  -1.648308  -1.013596
