14
butane_opt
C  -3.915536   0.248306   0.063587
C  -2.689918  -0.608420  -0.027526
H  -4.856469  -0.368400   0.292581
H  -4.131140   0.966835  -0.857883
H  -3.873483   0.850394   0.898774
C  -1.422599   0.198307  -0.019694
H  -2.691746  -1.364861  -0.962432
H  -2.650228  -1.132681   0.752792
C  -0.180355  -0.698437   0.070950
H  -1.458434   0.888616   0.851658
H  -1.333224   0.854019  -0.977300
H  -0.178795  -1.461505   1.070676
H   0.759829  -0.129106   0.071528
H  -0.096744  -1.255030  -0.736999
