butane_opt
 OpenBabel08242015423D

 14 13  0  0  0  0  0  0  0  0999 V2000
   -3.9686    0.2735    0.0614 C   0  0  0  0  0  0  0  0  0  0  0  0
   -2.7008   -0.6258    0.0166 C   0  0  0  0  0  0  0  0  0  0  0  0
   -4.9043   -0.3371   -0.1682 H   0  0  0  0  0  0  0  0  0  0  0  0
   -3.9531    0.7032   -0.7300 H   0  0  0  0  0  0  0  0  0  0  0  0
   -4.0043    1.0814    1.0049 H   0  0  0  0  0  0  0  0  0  0  0  0
   -1.4068    0.1916   -0.0488 C   0  0  0  0  0  0  0  0  0  0  0  0
   -2.7901   -1.2962   -0.8189 H   0  0  0  0  0  0  0  0  0  0  0  0
   -2.6433   -1.2403    0.9120 H   0  0  0  0  0  0  0  0  0  0  0  0
   -0.1447   -0.6913    0.0645 C   0  0  0  0  0  0  0  0  0  0  0  0
   -1.3504    0.8111    0.7380 H   0  0  0  0  0  0  0  0  0  0  0  0
   -1.3614    0.8216   -0.9332 H   0  0  0  0  0  0  0  0  0  0  0  0
   -0.1951   -1.3989    0.9691 H   0  0  0  0  0  0  0  0  0  0  0  0
    0.8001   -0.0783    0.0869 H   0  0  0  0  0  0  0  0  0  0  0  0
    0.0220   -1.3127   -0.7328 H   0  0  0  0  0  0  0  0  0  0  0  0
  1  5  1  0  0  0  0
  2  1  1  0  0  0  0
  2  8  1  0  0  0  0
  3  1  1  0  0  0  0
  4  1  1  0  0  0  0
  6  2  1  0  0  0  0
  6  9  1  0  0  0  0
  6 10  1  0  0  0  0
  7  2  1  0  0  0  0
  9 13  1  0  0  0  0
  9 12  1  0  0  0  0
 11  6  1  0  0  0  0
 14  9  1  0  0  0  0
M  END
$$$$
