butane_opt
 OpenBabel08242015423D

 14 13  0  0  0  0  0  0  0  0999 V2000
   -3.9550    0.2568    0.0562 C   0  0  0  0  0  0  0  0  0  0  0  0
   -2.6803   -0.5992    0.0005 C   0  0  0  0  0  0  0  0  0  0  0  0
   -4.8979   -0.3802    0.2062 H   0  0  0  0  0  0  0  0  0  0  0  0
   -4.0256    0.9980   -0.9387 H   0  0  0  0  0  0  0  0  0  0  0  0
   -3.8789    0.8152    0.8207 H   0  0  0  0  0  0  0  0  0  0  0  0
   -1.4071    0.1779   -0.0165 C   0  0  0  0  0  0  0  0  0  0  0  0
   -2.7701   -1.3654   -0.9407 H   0  0  0  0  0  0  0  0  0  0  0  0
   -2.6517   -1.1673    0.8435 H   0  0  0  0  0  0  0  0  0  0  0  0
   -0.1567   -0.6913    0.0730 C   0  0  0  0  0  0  0  0  0  0  0  0
   -1.3893    0.8406    0.8575 H   0  0  0  0  0  0  0  0  0  0  0  0
   -1.3748    0.8615   -0.9443 H   0  0  0  0  0  0  0  0  0  0  0  0
   -0.2246   -1.2362    0.9238 H   0  0  0  0  0  0  0  0  0  0  0  0
    0.7188   -0.1943    0.0516 H   0  0  0  0  0  0  0  0  0  0  0  0
   -0.1234   -1.3811   -0.8180 H   0  0  0  0  0  0  0  0  0  0  0  0
  1  3  1  0  0  0  0
  1  5  1  0  0  0  0
  2  1  1  0  0  0  0
  2  8  1  0  0  0  0
  4  1  1  0  0  0  0
  6  2  1  0  0  0  0
  6  9  1  0  0  0  0
  6 10  1  0  0  0  0
  7  2  1  0  0  0  0
  9 12  1  0  0  0  0
 11  6  1  0  0  0  0
 13  9  1  0  0  0  0
 14  9  1  0  0  0  0
M  END
$$$$
