butane_opt
 OpenBabel08242015423D

 14 13  0  0  0  0  0  0  0  0999 V2000
   -3.9433    0.2786    0.0588 C   0  0  0  0  0  0  0  0  0  0  0  0
   -2.6756   -0.6538   -0.0279 C   0  0  0  0  0  0  0  0  0  0  0  0
   -4.7928   -0.2833    0.2479 H   0  0  0  0  0  0  0  0  0  0  0  0
   -4.1571    0.9321   -0.8598 H   0  0  0  0  0  0  0  0  0  0  0  0
   -3.8706    0.9231    0.9251 H   0  0  0  0  0  0  0  0  0  0  0  0
   -1.4046    0.1802   -0.0290 C   0  0  0  0  0  0  0  0  0  0  0  0
   -2.7004   -1.3038   -0.8727 H   0  0  0  0  0  0  0  0  0  0  0  0
   -2.7642   -1.1969    0.7928 H   0  0  0  0  0  0  0  0  0  0  0  0
   -0.1633   -0.6815    0.0813 C   0  0  0  0  0  0  0  0  0  0  0  0
   -1.4241    0.8827    0.8125 H   0  0  0  0  0  0  0  0  0  0  0  0
   -1.3537    0.8250   -0.9058 H   0  0  0  0  0  0  0  0  0  0  0  0
   -0.2185   -1.3710    1.0132 H   0  0  0  0  0  0  0  0  0  0  0  0
    0.7399   -0.0501    0.0348 H   0  0  0  0  0  0  0  0  0  0  0  0
   -0.2360   -1.3095   -0.7362 H   0  0  0  0  0  0  0  0  0  0  0  0
  1  3  1  0  0  0  0
  1  5  1  0  0  0  0
  2  1  1  0  0  0  0
  2  8  1  0  0  0  0
  4  1  1  0  0  0  0
  6  2  1  0  0  0  0
  6  9  1  0  0  0  0
  6 10  1  0  0  0  0
  7  2  1  0  0  0  0
  9 12  1  0  0  0  0
 11  6  1  0  0  0  0
 13  9  1  0  0  0  0
 14  9  1  0  0  0  0
M  END
$$$$
