14
butane_opt
C  -3.917287   0.250585  -0.007495
C  -2.710750  -0.596920   0.090059
H  -4.909821  -0.415168  -0.204993
H  -3.866410   0.738872  -0.873772
H  -4.015549   1.051979   0.935786
C  -1.408431   0.209267   0.016626
H  -2.685670  -1.220919  -0.732267
H  -2.815140  -1.248496   0.990112
C  -0.162141  -0.706010   0.003921
H  -1.368347   0.894737   0.939608
H  -1.460361   0.769083  -0.838418
H  -0.098188  -1.371502   0.923353
H   0.686232  -0.209915  -0.095565
H  -0.093964  -1.354968  -0.827959
