14
butane_opt
C  -3.968568   0.273477   0.061441
C  -2.700767  -0.625768   0.016618
H  -4.904313  -0.337076  -0.168201
H  -3.953142   0.703246  -0.730034
H  -4.004293   1.081411   1.004874
C  -1.406837   0.191552  -0.048847
H  -2.790082  -1.296216  -0.818932
H  -2.643306  -1.240265   0.912039
C  -0.144651  -0.691314   0.064499
H  -1.350388   0.811073   0.737996
H  -1.361413   0.821622  -0.933233
H  -0.195117  -1.398927   0.969109
H   0.800101  -0.078346   0.086934
H   0.021971  -1.312745  -0.732830
