butane_opt
 OpenBabel08242015423D

 14 13  0  0  0  0  0  0  0  0999 V2000
   -3.9511    0.2410   -0.0338 C   0  0  0  0  0  0  0  0  0  0  0  0
   -2.7280   -0.6068    0.1257 C   0  0  0  0  0  0  0  0  0  0  0  0
   -4.7953   -0.2817   -0.1778 H   0  0  0  0  0  0  0  0  0  0  0  0
   -3.7841    0.8013   -0.8895 H   0  0  0  0  0  0  0  0  0  0  0  0
   -4.0763    0.9624    0.7964 H   0  0  0  0  0  0  0  0  0  0  0  0
   -1.4100    0.2246    0.0318 C   0  0  0  0  0  0  0  0  0  0  0  0
   -2.6790   -1.2231   -0.6778 H   0  0  0  0  0  0  0  0  0  0  0  0
   -2.7826   -1.3424    1.0987 H   0  0  0  0  0  0  0  0  0  0  0  0
   -0.1327   -0.7165   -0.0144 C   0  0  0  0  0  0  0  0  0  0  0  0
   -1.3779    0.9889    0.9900 H   0  0  0  0  0  0  0  0  0  0  0  0
   -1.4557    0.7905   -0.8125 H   0  0  0  0  0  0  0  0  0  0  0  0
   -0.1009   -1.2378    0.7871 H   0  0  0  0  0  0  0  0  0  0  0  0
    0.7638   -0.1430   -0.0035 H   0  0  0  0  0  0  0  0  0  0  0  0
   -0.0815   -1.4986   -0.9922 H   0  0  0  0  0  0  0  0  0  0  0  0
  1  2  1  0  0  0  0
  1  5  1  0  0  0  0
  2  8  1  0  0  0  0
  3  1  1  0  0  0  0
  4  1  1  0  0  0  0
  6  2  1  0  0  0  0
  6 10  1  0  0  0  0
  7  2  1  0  0  0  0
  9 13  1  0  0  0  0
  9  6  1  0  0  0  0
  9 12  1  0  0  0  0
 11  6  1  0  0  0  0
 14  9  1  0  0  0  0
M  END
$$$$
