14
butane_opt
C  -3.938872   0.274218  -0.038390
C  -2.691634  -0.647691   0.123378
H  -4.789742  -0.266855  -0.220603
H  -3.811476   0.839201  -0.911104
H  -4.081262   0.994709   0.847707
C  -1.411207   0.185220   0.056925
H  -2.597988  -1.210331  -0.673572
H  -2.765859  -1.315658   1.059075
C  -0.175593  -0.674654  -0.039700
H  -1.360983   0.913921   0.957589
H  -1.518029   0.718524  -0.765186
H  -0.125234  -1.339800   0.870824
H   0.803507  -0.080784   0.002088
H  -0.190337  -1.358741  -0.937988
