14
butane_opt
C  -3.960323   0.276308  -0.024530
C  -2.700535  -0.635657   0.068633
H  -4.766543  -0.255059   0.207814
H  -4.096047   1.126290  -1.071819
H  -3.990636   0.760610   0.712531
C  -1.390747   0.179491   0.088190
H  -2.607561  -1.357112  -0.814110
H  -2.844339  -1.302940   0.962456
C  -0.148838  -0.680523  -0.010838
H  -1.299653   0.831213   0.952733
H  -1.356936   0.789610  -0.812477
H  -0.162667  -1.182312   0.800397
H   0.722890  -0.094345  -0.057998
H  -0.212313  -1.442508  -0.922896
