butane_opt
 OpenBabel08242015423D

 14 13  0  0  0  0  0  0  0  0999 V2000
   -3.9603    0.2763   -0.0245 C   0  0  0  0  0  0  0  0  0  0  0  0
   -2.7005   -0.6357    0.0686 C   0  0  0  0  0  0  0  0  0  0  0  0
   -4.7665   -0.2551    0.2078 H   0  0  0  0  0  0  0  0  0  0  0  0
   -4.0960    1.1263   -1.0718 H   0  0  0  0  0  0  0  0  0  0  0  0
   -3.9906    0.7606    0.7125 H   0  0  0  0  0  0  0  0  0  0  0  0
   -1.3907    0.1795    0.0882 C   0  0  0  0  0  0  0  0  0  0  0  0
   -2.6076   -1.3571   -0.8141 H   0  0  0  0  0  0  0  0  0  0  0  0
   -2.8443   -1.3029    0.9625 H   0  0  0  0  0  0  0  0  0  0  0  0
   -0.1488   -0.6805   -0.0108 C   0  0  0  0  0  0  0  0  0  0  0  0
   -1.2997    0.8312    0.9527 H   0  0  0  0  0  0  0  0  0  0  0  0
   -1.3569    0.7896   -0.8125 H   0  0  0  0  0  0  0  0  0  0  0  0
   -0.1627   -1.1823    0.8004 H   0  0  0  0  0  0  0  0  0  0  0  0
    0.7229   -0.0943   -0.0580 H   0  0  0  0  0  0  0  0  0  0  0  0
   -0.2123   -1.4425   -0.9229 H   0  0  0  0  0  0  0  0  0  0  0  0
  1  2  1  0  0  0  0
  1  3  1  0  0  0  0
  1  5  1  0  0  0  0
  2  6  1  0  0  0  0
  2  8  1  0  0  0  0
  4  1  1  0  0  0  0
  6 10  1  0  0  0  0
  7  2  1  0  0  0  0
  9  6  1  0  0  0  0
  9 12  1  0  0  0  0
 11  6  1  0  0  0  0
 13  9  1  0  0  0  0
 14  9  1  0  0  0  0
M  END
$$$$
