14
butane_opt
C  -3.927896   0.262373  -0.012250
C  -2.699928  -0.588812   0.090901
H  -4.886553  -0.388600   0.026109
H  -3.932759   0.943620  -0.957540
H  -3.924492   0.779161   0.739512
C  -1.401702   0.185348   0.013420
H  -2.753277  -1.166143  -0.722356
H  -2.700046  -1.341094   1.077368
C  -0.176552  -0.705896   0.003649
H  -1.361412   0.906363   0.909635
H  -1.437078   0.719131  -0.777030
H  -0.203148  -1.086562   0.704232
H   0.692816  -0.098907   0.245216
H  -0.037764  -1.586985  -0.998073
