butane_opt
 OpenBabel08242015423D

 14 13  0  0  0  0  0  0  0  0999 V2000
   -3.9380    0.2768   -0.0294 C   0  0  0  0  0  0  0  0  0  0  0  0
   -2.6859   -0.6333    0.1025 C   0  0  0  0  0  0  0  0  0  0  0  0
   -4.7943   -0.2792   -0.1410 H   0  0  0  0  0  0  0  0  0  0  0  0
   -3.8426    0.8507   -0.9248 H   0  0  0  0  0  0  0  0  0  0  0  0
   -4.0940    0.9300    0.7391 H   0  0  0  0  0  0  0  0  0  0  0  0
   -1.4010    0.1773    0.0607 C   0  0  0  0  0  0  0  0  0  0  0  0
   -2.7110   -1.2087   -0.6867 H   0  0  0  0  0  0  0  0  0  0  0  0
   -2.6581   -1.3475    1.0496 H   0  0  0  0  0  0  0  0  0  0  0  0
   -0.1827   -0.6890   -0.0311 C   0  0  0  0  0  0  0  0  0  0  0  0
   -1.3685    0.9160    0.9872 H   0  0  0  0  0  0  0  0  0  0  0  0
   -1.4975    0.7380   -0.7461 H   0  0  0  0  0  0  0  0  0  0  0  0
   -0.1211   -1.2908    0.8498 H   0  0  0  0  0  0  0  0  0  0  0  0
    0.7818   -0.0097   -0.0079 H   0  0  0  0  0  0  0  0  0  0  0  0
   -0.2423   -1.3449   -0.9124 H   0  0  0  0  0  0  0  0  0  0  0  0
  1  2  1  0  0  0  0
  1  5  1  0  0  0  0
  2  8  1  0  0  0  0
  3  1  1  0  0  0  0
  4  1  1  0  0  0  0
  6  2  1  0  0  0  0
  6 10  1  0  0  0  0
  7  2  1  0  0  0  0
  9 13  1  0  0  0  0
  9  6  1  0  0  0  0
  9 12  1  0  0  0  0
 11  6  1  0  0  0  0
 14  9  1  0  0  0  0
M  END
$$$$
