butane_opt
 OpenBabel08242015423D

 14 13  0  0  0  0  0  0  0  0999 V2000
   -3.9389    0.2742   -0.0384 C   0  0  0  0  0  0  0  0  0  0  0  0
   -2.6916   -0.6477    0.1234 C   0  0  0  0  0  0  0  0  0  0  0  0
   -4.7897   -0.2669   -0.2206 H   0  0  0  0  0  0  0  0  0  0  0  0
   -3.8115    0.8392   -0.9111 H   0  0  0  0  0  0  0  0  0  0  0  0
   -4.0813    0.9947    0.8477 H   0  0  0  0  0  0  0  0  0  0  0  0
   -1.4112    0.1852    0.0569 C   0  0  0  0  0  0  0  0  0  0  0  0
   -2.5980   -1.2103   -0.6736 H   0  0  0  0  0  0  0  0  0  0  0  0
   -2.7659   -1.3157    1.0591 H   0  0  0  0  0  0  0  0  0  0  0  0
   -0.1756   -0.6747   -0.0397 C   0  0  0  0  0  0  0  0  0  0  0  0
   -1.3610    0.9139    0.9576 H   0  0  0  0  0  0  0  0  0  0  0  0
   -1.5180    0.7185   -0.7652 H   0  0  0  0  0  0  0  0  0  0  0  0
   -0.1252   -1.3398    0.8708 H   0  0  0  0  0  0  0  0  0  0  0  0
    0.8035   -0.0808    0.0021 H   0  0  0  0  0  0  0  0  0  0  0  0
   -0.1903   -1.3587   -0.9380 H   0  0  0  0  0  0  0  0  0  0  0  0
  1  2  1  0  0  0  0
  1  5  1  0  0  0  0
  2  8  1  0  0  0  0
  3  1  1  0  0  0  0
  4  1  1  0  0  0  0
  6  2  1  0  0  0  0
  6 10  1  0  0  0  0
  7  2  1  0  0  0  0
  9 13  1  0  0  0  0
  9  6  1  0  0  0  0
  9 12  1  0  0  0  0
 11  6  1  0  0  0  0
 14  9  1  0  0  0  0
M  END
$$$$
