14
butane_opt
C  -3.924564   0.289132  -0.017864
C  -2.695077  -0.649134   0.070401
H  -4.813368  -0.267161  -0.052265
H  -3.950531   0.927255  -0.937862
H  -4.007355   0.951027   0.810750
C  -1.392456   0.166109   0.070322
H  -2.721952  -1.361728  -0.811972
H  -2.712611  -1.224122   0.966830
C  -0.190966  -0.685733  -0.017470
H  -1.343241   0.847562   0.955157
H  -1.499986   0.780333  -0.786950
H  -0.094800  -1.360538   0.964085
H   0.784287  -0.018711  -0.158218
H  -0.243390  -1.173796  -0.766640
