14
butane_opt
C  -3.964344   0.285150   0.067114
C  -2.698761  -0.625400  -0.020075
H  -4.929124  -0.335749   0.235042
H  -4.070064   0.887910  -0.782727
H  -3.888263   0.985570   0.936575
C  -1.371122   0.170406  -0.055007
H  -2.684068  -1.424754  -0.935937
H  -2.686071  -1.226868   0.875632
C  -0.165601  -0.683088   0.092905
H  -1.409794   0.725549   0.734506
H  -1.340754   0.878712  -1.021031
H  -0.259984  -1.215161   0.993302
H   0.764946  -0.086152   0.195398
H  -0.119759  -1.425746  -0.805454
