14
butane_opt
C  -3.923319   0.239097   0.046363
C  -2.692490  -0.572040   0.022620
H  -4.882626  -0.417406  -0.086082
H  -3.852765   0.681259  -0.763577
H  -4.019617   1.110502   1.028771
C  -1.420043   0.197507  -0.041551
H  -2.808097  -1.260227  -0.884769
H  -2.723926  -1.245080   0.961918
C  -0.157003  -0.707545   0.060304
H  -1.472630   0.912417   0.801414
H  -1.359335   0.776572  -0.923515
H  -0.164029  -1.455950   1.063169
H   0.739141  -0.153270  -0.031881
H  -0.144479  -1.317741  -0.750322
