14
butane_opt
C  -3.970821   0.284426   0.059755
C  -2.694453  -0.649806   0.022987
H  -4.865396  -0.290477  -0.176743
H  -3.970737   0.681084  -0.731187
H  -4.020473   1.137123   1.042094
C  -1.401166   0.189451  -0.048779
H  -2.756197  -1.336068  -0.891834
H  -2.659926  -1.256748   0.896359
C  -0.157213  -0.682681   0.081781
H  -1.394056   0.698020   0.699173
H  -1.278012   0.899614  -1.002069
H  -0.039165  -1.284870   0.961035
H   0.730654  -0.081594   0.049802
H  -0.097991  -1.332786  -0.778361
