14
butane_opt
C  -3.952689   0.260461  -0.012049
C  -2.714171  -0.614342   0.052532
H  -4.882478  -0.387088   0.281237
H  -3.983867   1.044678  -1.026445
H  -3.888416   0.699691   0.738131
C  -1.402511   0.223444   0.049672
H  -2.765500  -1.232079  -0.783161
H  -2.777048  -1.230730   0.966792
C  -0.137772  -0.703082  -0.005788
H  -1.361066   0.922684   0.928550
H  -1.362389   0.730777  -0.768914
H  -0.155872  -1.318140   0.867162
H   0.672649  -0.180356   0.129279
H  -0.028054  -1.525682  -0.933466
