butane_opt
 OpenBabel08242015423D

 14 13  0  0  0  0  0  0  0  0999 V2000
   -3.9580    0.2530    0.0160 C   0  0  0  0  0  0  0  0  0  0  0  0
   -2.7220   -0.6064    0.0693 C   0  0  0  0  0  0  0  0  0  0  0  0
   -4.8427   -0.3071   -0.0126 H   0  0  0  0  0  0  0  0  0  0  0  0
   -3.9514    0.9528   -0.8991 H   0  0  0  0  0  0  0  0  0  0  0  0
   -4.0085    0.8423    0.7887 H   0  0  0  0  0  0  0  0  0  0  0  0
   -1.3851    0.2029    0.0101 C   0  0  0  0  0  0  0  0  0  0  0  0
   -2.7275   -1.2901   -0.8029 H   0  0  0  0  0  0  0  0  0  0  0  0
   -2.6892   -1.2390    0.9346 H   0  0  0  0  0  0  0  0  0  0  0  0
   -0.1582   -0.7087    0.0112 C   0  0  0  0  0  0  0  0  0  0  0  0
   -1.4082    0.8858    0.8402 H   0  0  0  0  0  0  0  0  0  0  0  0
   -1.3286    0.8239   -0.8449 H   0  0  0  0  0  0  0  0  0  0  0  0
   -0.1224   -1.2345    0.8651 H   0  0  0  0  0  0  0  0  0  0  0  0
    0.7648   -0.1147    0.1459 H   0  0  0  0  0  0  0  0  0  0  0  0
   -0.0290   -1.4862   -0.8819 H   0  0  0  0  0  0  0  0  0  0  0  0
  1  2  1  0  0  0  0
  1  5  1  0  0  0  0
  2  8  1  0  0  0  0
  3  1  1  0  0  0  0
  4  1  1  0  0  0  0
  6  9  1  0  0  0  0
  6  2  1  0  0  0  0
  6 10  1  0  0  0  0
  7  2  1  0  0  0  0
  9 13  1  0  0  0  0
  9 12  1  0  0  0  0
 11  6  1  0  0  0  0
 14  9  1  0  0  0  0
M  END
$$$$
