14
butane_opt
C  -3.939739   0.276454  -0.005146
C  -2.687921  -0.633758   0.052178
H  -4.845840  -0.311857  -0.007681
H  -3.937994   0.918222  -0.924001
H  -3.988942   0.951365   0.843557
C  -1.404823   0.173361   0.044139
H  -2.691880  -1.259563  -0.741682
H  -2.704590  -1.303241   0.988054
C  -0.168043  -0.676751   0.011097
H  -1.387502   0.851242   0.917510
H  -1.454894   0.746513  -0.824678
H  -0.146129  -1.295523   0.894457
H   0.756728  -0.066592  -0.092006
H  -0.223926  -1.362462  -0.847591
