butane_opt
 OpenBabel08242015423D

 14 13  0  0  0  0  0  0  0  0999 V2000
   -3.9599    0.2727    0.0263 C   0  0  0  0  0  0  0  0  0  0  0  0
   -2.6928   -0.6286    0.0295 C   0  0  0  0  0  0  0  0  0  0  0  0
   -4.8619   -0.2782   -0.0403 H   0  0  0  0  0  0  0  0  0  0  0  0
   -3.9915    0.8431   -0.8466 H   0  0  0  0  0  0  0  0  0  0  0  0
   -4.0195    0.9656    0.9086 H   0  0  0  0  0  0  0  0  0  0  0  0
   -1.4041    0.1776    0.0037 C   0  0  0  0  0  0  0  0  0  0  0  0
   -2.7362   -1.3079   -0.8229 H   0  0  0  0  0  0  0  0  0  0  0  0
   -2.6579   -1.2397    0.9035 H   0  0  0  0  0  0  0  0  0  0  0  0
   -0.1497   -0.6859    0.0437 C   0  0  0  0  0  0  0  0  0  0  0  0
   -1.3448    0.8853    0.8479 H   0  0  0  0  0  0  0  0  0  0  0  0
   -1.3834    0.7606   -0.8576 H   0  0  0  0  0  0  0  0  0  0  0  0
   -0.1262   -1.3962    1.0002 H   0  0  0  0  0  0  0  0  0  0  0  0
    0.7979   -0.0500   -0.0948 H   0  0  0  0  0  0  0  0  0  0  0  0
   -0.2217   -1.2802   -0.7887 H   0  0  0  0  0  0  0  0  0  0  0  0
  1  2  1  0  0  0  0
  1  5  1  0  0  0  0
  2  8  1  0  0  0  0
  3  1  1  0  0  0  0
  4  1  1  0  0  0  0
  6  2  1  0  0  0  0
  6  9  1  0  0  0  0
  6 10  1  0  0  0  0
  7  2  1  0  0  0  0
  9 12  1  0  0  0  0
 11  6  1  0  0  0  0
 13  9  1  0  0  0  0
 14  9  1  0  0  0  0
M  END
$$$$
