14
butane_opt
C  -3.930778   0.273362   0.000710
C  -2.708343  -0.606737   0.031086
H  -4.919859  -0.438331   0.254543
H  -4.048118   1.006553  -0.982873
H  -3.772696   0.756433   0.793027
C  -1.398891   0.183862   0.038941
H  -2.647586  -1.223654  -0.763664
H  -2.745481  -1.242971   0.916806
C  -0.167800  -0.702284   0.012194
H  -1.441722   0.934555   0.902926
H  -1.386648   0.768070  -0.818184
H  -0.184942  -1.272787   0.892004
H   0.729962  -0.097151   0.074105
H  -0.131085  -1.446879  -0.848624
