14
butane_opt
C  -3.930146   0.250217   0.046627
C  -2.701063  -0.592978  -0.000351
H  -4.869149  -0.388508  -0.089122
H  -3.964411   0.748997  -0.791348
H  -3.865352   1.082565   1.097793
C  -1.420250   0.189632  -0.027066
H  -2.767043  -1.335337  -0.924519
H  -2.615948  -1.178612   0.873466
C  -0.159931  -0.708370   0.066428
H  -1.431338   0.866129   0.863331
H  -1.432118   0.828065  -0.903973
H  -0.143626  -1.552489   1.111718
H   0.797155  -0.067057  -0.168668
H  -0.186715  -1.129766  -0.632657
