butane_opt
 OpenBabel08242015423D

 14 13  0  0  0  0  0  0  0  0999 V2000
   -3.9614    0.2871   -0.0095 C   0  0  0  0  0  0  0  0  0  0  0  0
   -2.7052   -0.6597    0.0349 C   0  0  0  0  0  0  0  0  0  0  0  0
   -4.8378   -0.2365    0.2994 H   0  0  0  0  0  0  0  0  0  0  0  0
   -4.1440    1.1067   -1.0202 H   0  0  0  0  0  0  0  0  0  0  0  0
   -3.8983    0.7725    0.7028 H   0  0  0  0  0  0  0  0  0  0  0  0
   -1.3922    0.1794    0.0653 C   0  0  0  0  0  0  0  0  0  0  0  0
   -2.6113   -1.3348   -0.7841 H   0  0  0  0  0  0  0  0  0  0  0  0
   -2.7166   -1.3068    0.9701 H   0  0  0  0  0  0  0  0  0  0  0  0
   -0.1625   -0.6779   -0.0010 C   0  0  0  0  0  0  0  0  0  0  0  0
   -1.3717    0.8999    0.8981 H   0  0  0  0  0  0  0  0  0  0  0  0
   -1.3183    0.7272   -0.7512 H   0  0  0  0  0  0  0  0  0  0  0  0
   -0.0970   -1.2263    0.8435 H   0  0  0  0  0  0  0  0  0  0  0  0
    0.7567   -0.0896    0.0593 H   0  0  0  0  0  0  0  0  0  0  0  0
   -0.1363   -1.3186   -0.8765 H   0  0  0  0  0  0  0  0  0  0  0  0
  1  2  1  0  0  0  0
  1  3  1  0  0  0  0
  1  5  1  0  0  0  0
  2  6  1  0  0  0  0
  2  8  1  0  0  0  0
  4  1  1  0  0  0  0
  6 10  1  0  0  0  0
  7  2  1  0  0  0  0
  9 13  1  0  0  0  0
  9  6  1  0  0  0  0
  9 12  1  0  0  0  0
 11  6  1  0  0  0  0
 14  9  1  0  0  0  0
M  END
$$$$
