butane_opt
 OpenBabel08242015423D

 14 13  0  0  0  0  0  0  0  0999 V2000
   -3.9301    0.2502    0.0466 C   0  0  0  0  0  0  0  0  0  0  0  0
   -2.7011   -0.5930   -0.0004 C   0  0  0  0  0  0  0  0  0  0  0  0
   -4.8691   -0.3885   -0.0891 H   0  0  0  0  0  0  0  0  0  0  0  0
   -3.9644    0.7490   -0.7913 H   0  0  0  0  0  0  0  0  0  0  0  0
   -3.8654    1.0826    1.0978 H   0  0  0  0  0  0  0  0  0  0  0  0
   -1.4203    0.1896   -0.0271 C   0  0  0  0  0  0  0  0  0  0  0  0
   -2.7670   -1.3353   -0.9245 H   0  0  0  0  0  0  0  0  0  0  0  0
   -2.6159   -1.1786    0.8735 H   0  0  0  0  0  0  0  0  0  0  0  0
   -0.1599   -0.7084    0.0664 C   0  0  0  0  0  0  0  0  0  0  0  0
   -1.4313    0.8661    0.8633 H   0  0  0  0  0  0  0  0  0  0  0  0
   -1.4321    0.8281   -0.9040 H   0  0  0  0  0  0  0  0  0  0  0  0
   -0.1436   -1.5525    1.1117 H   0  0  0  0  0  0  0  0  0  0  0  0
    0.7972   -0.0671   -0.1687 H   0  0  0  0  0  0  0  0  0  0  0  0
   -0.1867   -1.1298   -0.6327 H   0  0  0  0  0  0  0  0  0  0  0  0
  1  5  1  0  0  0  0
  2  1  1  0  0  0  0
  2  8  1  0  0  0  0
  3  1  1  0  0  0  0
  4  1  1  0  0  0  0
  6  2  1  0  0  0  0
  6  9  1  0  0  0  0
  6 10  1  0  0  0  0
  7  2  1  0  0  0  0
  9 12  1  0  0  0  0
 11  6  1  0  0  0  0
 13  9  1  0  0  0  0
 14  9  1  0  0  0  0
M  END
$$$$
