14
butane_opt
C  -3.931793   0.226916   0.033089
C  -2.693153  -0.572793   0.016202
H  -4.907022  -0.415120   0.008057
H  -3.911208   0.798162  -0.814575
H  -3.951062   1.049299   0.949867
C  -1.428004   0.200913  -0.003325
H  -2.745128  -1.298187  -0.839131
H  -2.712549  -1.126341   0.870086
C  -0.145329  -0.716551   0.059458
H  -1.481563   0.828875   0.806316
H  -1.346162   0.857104  -0.919395
H  -0.045717  -1.402810   1.008766
H   0.740468  -0.147540  -0.141941
H  -0.258470  -1.292750  -0.736757
