14
butane_opt
C  -3.953020   0.284383  -0.002306
C  -2.661616  -0.628065   0.083614
H  -4.894821  -0.351776   0.105851
H  -3.875544   0.994620  -1.002771
H  -4.029082   0.851942   0.769218
C  -1.404756   0.150381   0.016812
H  -2.714769  -1.305280  -0.776400
H  -2.638468  -1.293882   1.020850
C  -0.174314  -0.673834   0.017390
H  -1.332639   0.846227   0.875626
H  -1.448327   0.814383  -0.927227
H  -0.297202  -0.998970   0.719609
H   0.708282  -0.065493   0.247220
H  -0.169400  -1.567605  -1.005659
