14
butane_opt
C  -3.945655   0.275181   0.041125
C  -2.696613  -0.611917   0.002369
H  -4.799923  -0.296439   0.124194
H  -3.927132   0.902507  -0.854846
H  -3.905103   0.945219   0.875119
C  -1.400363   0.158548  -0.015387
H  -2.703013  -1.261527  -0.792983
H  -2.619591  -1.333521   0.954417
C  -0.184223  -0.681725   0.059629
H  -1.380208   0.788957   0.811069
H  -1.355330   0.747535  -0.893372
H  -0.216428  -1.196832   0.882471
H   0.725895  -0.058305   0.126688
H  -0.133698  -1.375750  -0.852766
