14
butane_opt
C  -3.927890   0.249091   0.054546
C  -2.697417  -0.615642   0.016827
H  -4.872811  -0.319712  -0.111215
H  -3.944936   0.669259  -0.744947
H  -4.072318   1.108152   1.015121
C  -1.420204   0.214128  -0.030303
H  -2.763592  -1.375470  -0.878280
H  -2.678799  -1.151333   0.858002
C  -0.149473  -0.717052   0.058119
H  -1.379275   0.809956   0.742380
H  -1.436705   0.937426  -0.959730
H  -0.148524  -1.427069   1.015871
H   0.757733  -0.116757   0.007598
H  -0.121772  -1.185291  -0.652219
