14
butane_opt
C  -3.932425   0.285079   0.053710
C  -2.698684  -0.644212  -0.005850
H  -4.803033  -0.293253   0.002375
H  -4.058477   0.830901  -0.769360
H  -3.967825   1.069052   1.009132
C  -1.387040   0.182422  -0.012252
H  -2.672877  -1.460073  -0.942668
H  -2.771144  -1.196823   0.766941
C  -0.170085  -0.678852   0.071577
H  -1.438245   0.769706   0.772929
H  -1.378710   0.843030  -0.928854
H  -0.109848  -1.519233   1.121444
H   0.754758  -0.056397  -0.187239
H  -0.322802  -1.170106  -0.650541
