14
butane_opt
C  -3.950270   0.259143   0.079602
C  -2.714268  -0.611173  -0.039250
H  -4.890690  -0.378325   0.199645
H  -4.070619   0.885313  -0.858164
H  -3.922210   0.883354   0.932800
C  -1.404070   0.208759  -0.033336
H  -2.826161  -1.252692  -0.907816
H  -2.670187  -1.167774   0.768438
C  -0.130532  -0.721540   0.098757
H  -1.427598   0.792685   0.772856
H  -1.333031   0.894904  -1.014226
H  -0.183662  -1.286593   0.992365
H   0.805503  -0.091570   0.039703
H  -0.101540  -1.377300  -0.761822
