butane_opt
 OpenBabel08242015423D

 14 13  0  0  0  0  0  0  0  0999 V2000
   -3.9275    0.2668    0.0353 C   0  0  0  0  0  0  0  0  0  0  0  0
   -2.7016   -0.6131    0.0198 C   0  0  0  0  0  0  0  0  0  0  0  0
   -4.8659   -0.3691    0.0819 H   0  0  0  0  0  0  0  0  0  0  0  0
   -3.9849    0.8416   -0.8121 H   0  0  0  0  0  0  0  0  0  0  0  0
   -3.8934    0.9410    0.9137 H   0  0  0  0  0  0  0  0  0  0  0  0
   -1.4061    0.1921   -0.0216 C   0  0  0  0  0  0  0  0  0  0  0  0
   -2.7351   -1.3132   -0.8173 H   0  0  0  0  0  0  0  0  0  0  0  0
   -2.7070   -1.2193    0.8987 H   0  0  0  0  0  0  0  0  0  0  0  0
   -0.1719   -0.6993    0.0628 C   0  0  0  0  0  0  0  0  0  0  0  0
   -1.4012    0.8139    0.7825 H   0  0  0  0  0  0  0  0  0  0  0  0
   -1.4286    0.8813   -0.9424 H   0  0  0  0  0  0  0  0  0  0  0  0
   -0.1962   -1.2639    0.9318 H   0  0  0  0  0  0  0  0  0  0  0  0
    0.7365   -0.0854    0.0992 H   0  0  0  0  0  0  0  0  0  0  0  0
   -0.0660   -1.4611   -0.8575 H   0  0  0  0  0  0  0  0  0  0  0  0
  1  3  1  0  0  0  0
  1  5  1  0  0  0  0
  2  1  1  0  0  0  0
  2  8  1  0  0  0  0
  4  1  1  0  0  0  0
  6  2  1  0  0  0  0
  6  9  1  0  0  0  0
  6 10  1  0  0  0  0
  7  2  1  0  0  0  0
  9 13  1  0  0  0  0
  9 12  1  0  0  0  0
 11  6  1  0  0  0  0
 14  9  1  0  0  0  0
M  END
$$$$
