14
butane_opt
C  -3.928427   0.244684  -0.032528
C  -2.711079  -0.589731   0.079714
H  -4.793131  -0.343902   0.033251
H  -4.015761   0.872195  -0.940754
H  -3.857306   0.885029   0.792166
C  -1.409105   0.183187   0.067905
H  -2.671205  -1.190386  -0.776506
H  -2.736438  -1.198078   0.958528
C  -0.170237  -0.711738  -0.008302
H  -1.397634   0.924574   0.959487
H  -1.461579   0.816848  -0.811592
H  -0.035606  -1.324528   0.871967
H   0.790080  -0.098911  -0.103677
H  -0.217687  -1.330952  -0.826962
