14
butane_opt
C  -3.934538   0.253208  -0.049623
C  -2.691082  -0.588394   0.110578
H  -4.899082  -0.446054  -0.121242
H  -3.780363   0.687260  -0.819923
H  -4.011907   0.977793   0.870112
C  -1.413532   0.202562   0.054202
H  -2.636897  -1.136590  -0.670134
H  -2.759575  -1.263653   1.011376
C  -0.173405  -0.721198  -0.013384
H  -1.360725   0.907574   0.957734
H  -1.522189   0.817655  -0.839492
H  -0.038199  -1.281088   0.840208
H   0.748712  -0.119021  -0.100325
H  -0.208452  -1.383771  -0.887908
