butane_opt
 OpenBabel08242015423D

 14 13  0  0  0  0  0  0  0  0999 V2000
   -3.9324    0.2851    0.0537 C   0  0  0  0  0  0  0  0  0  0  0  0
   -2.6987   -0.6442   -0.0059 C   0  0  0  0  0  0  0  0  0  0  0  0
   -4.8030   -0.2933    0.0024 H   0  0  0  0  0  0  0  0  0  0  0  0
   -4.0585    0.8309   -0.7694 H   0  0  0  0  0  0  0  0  0  0  0  0
   -3.9678    1.0691    1.0091 H   0  0  0  0  0  0  0  0  0  0  0  0
   -1.3870    0.1824   -0.0123 C   0  0  0  0  0  0  0  0  0  0  0  0
   -2.6729   -1.4601   -0.9427 H   0  0  0  0  0  0  0  0  0  0  0  0
   -2.7711   -1.1968    0.7669 H   0  0  0  0  0  0  0  0  0  0  0  0
   -0.1701   -0.6789    0.0716 C   0  0  0  0  0  0  0  0  0  0  0  0
   -1.4382    0.7697    0.7729 H   0  0  0  0  0  0  0  0  0  0  0  0
   -1.3787    0.8430   -0.9289 H   0  0  0  0  0  0  0  0  0  0  0  0
   -0.1098   -1.5192    1.1214 H   0  0  0  0  0  0  0  0  0  0  0  0
    0.7548   -0.0564   -0.1872 H   0  0  0  0  0  0  0  0  0  0  0  0
   -0.3228   -1.1701   -0.6505 H   0  0  0  0  0  0  0  0  0  0  0  0
  1  5  1  0  0  0  0
  2  1  1  0  0  0  0
  2  8  1  0  0  0  0
  3  1  1  0  0  0  0
  4  1  1  0  0  0  0
  6  2  1  0  0  0  0
  6  9  1  0  0  0  0
  6 10  1  0  0  0  0
  7  2  1  0  0  0  0
  9 12  1  0  0  0  0
 11  6  1  0  0  0  0
 13  9  1  0  0  0  0
 14  9  1  0  0  0  0
M  END
$$$$
