14
butane_opt
C  -3.965081   0.270406  -0.020182
C  -2.704134  -0.638518   0.063410
H  -4.826459  -0.237748   0.213011
H  -3.954684   1.102773  -1.056109
H  -4.004049   0.799678   0.732207
C  -1.381197   0.173599   0.072385
H  -2.820215  -1.340123  -0.878736
H  -2.700832  -1.239494   0.945916
C  -0.157525  -0.683033  -0.003192
H  -1.337696   0.929806   0.980516
H  -1.374928   0.791781  -0.799456
H  -0.031009  -1.245290   0.883040
H   0.702643  -0.159305  -0.085534
H  -0.186583  -1.339678  -0.864035
