butane_opt
 OpenBabel08242015423D

 14 13  0  0  0  0  0  0  0  0999 V2000
   -3.9188    0.2547   -0.0383 C   0  0  0  0  0  0  0  0  0  0  0  0
   -2.7068   -0.6102    0.1221 C   0  0  0  0  0  0  0  0  0  0  0  0
   -4.8262   -0.3651   -0.2209 H   0  0  0  0  0  0  0  0  0  0  0  0
   -3.7841    0.7585   -0.8543 H   0  0  0  0  0  0  0  0  0  0  0  0
   -4.0312    1.0296    0.8815 H   0  0  0  0  0  0  0  0  0  0  0  0
   -1.4170    0.2131    0.0622 C   0  0  0  0  0  0  0  0  0  0  0  0
   -2.6949   -1.2521   -0.7415 H   0  0  0  0  0  0  0  0  0  0  0  0
   -2.8381   -1.2962    1.0491 H   0  0  0  0  0  0  0  0  0  0  0  0
   -0.1649   -0.7146   -0.0277 C   0  0  0  0  0  0  0  0  0  0  0  0
   -1.4328    0.8248    0.8921 H   0  0  0  0  0  0  0  0  0  0  0  0
   -1.4550    0.9142   -0.8941 H   0  0  0  0  0  0  0  0  0  0  0  0
   -0.0280   -1.2437    0.8106 H   0  0  0  0  0  0  0  0  0  0  0  0
    0.7476   -0.1513   -0.0045 H   0  0  0  0  0  0  0  0  0  0  0  0
   -0.1946   -1.4079   -0.8855 H   0  0  0  0  0  0  0  0  0  0  0  0
  1  2  1  0  0  0  0
  1  5  1  0  0  0  0
  2  8  1  0  0  0  0
  3  1  1  0  0  0  0
  4  1  1  0  0  0  0
  6  2  1  0  0  0  0
  6 10  1  0  0  0  0
  7  2  1  0  0  0  0
  9 13  1  0  0  0  0
  9  6  1  0  0  0  0
  9 12  1  0  0  0  0
 11  6  1  0  0  0  0
 14  9  1  0  0  0  0
M  END
$$$$
