14
butane_opt
C  -3.930984   0.235846  -0.019217
C  -2.693815  -0.578187   0.073937
H  -4.961251  -0.419075   0.152409
H  -3.951073   0.931889  -0.972263
H  -3.958126   0.865077   0.835759
C  -1.406829   0.199428   0.025120
H  -2.626003  -1.222651  -0.743454
H  -2.792551  -1.288536   1.036465
C  -0.158328  -0.706655   0.005937
H  -1.387915   0.936562   0.927664
H  -1.499954   0.818893  -0.808545
H  -0.162526  -1.226945   0.804878
H   0.685417  -0.168579   0.148895
H  -0.063076  -1.529568  -0.977445
