butane_opt
 OpenBabel08242015423D

 14 13  0  0  0  0  0  0  0  0999 V2000
   -3.9542    0.2349   -0.0270 C   0  0  0  0  0  0  0  0  0  0  0  0
   -2.7300   -0.5839    0.0832 C   0  0  0  0  0  0  0  0  0  0  0  0
   -4.8321   -0.3385    0.0712 H   0  0  0  0  0  0  0  0  0  0  0  0
   -3.9203    0.8582   -0.9628 H   0  0  0  0  0  0  0  0  0  0  0  0
   -3.9898    0.9406    0.8932 H   0  0  0  0  0  0  0  0  0  0  0  0
   -1.3923    0.2203    0.0258 C   0  0  0  0  0  0  0  0  0  0  0  0
   -2.7769   -1.1349   -0.7047 H   0  0  0  0  0  0  0  0  0  0  0  0
   -2.7325   -1.3496    1.0867 H   0  0  0  0  0  0  0  0  0  0  0  0
   -0.1341   -0.7220    0.0091 C   0  0  0  0  0  0  0  0  0  0  0  0
   -1.4235    0.9020    0.8534 H   0  0  0  0  0  0  0  0  0  0  0  0
   -1.4026    0.7509   -0.8334 H   0  0  0  0  0  0  0  0  0  0  0  0
   -0.0996   -1.1691    0.7751 H   0  0  0  0  0  0  0  0  0  0  0  0
    0.7625   -0.1261    0.1541 H   0  0  0  0  0  0  0  0  0  0  0  0
   -0.0715   -1.5971   -1.0034 H   0  0  0  0  0  0  0  0  0  0  0  0
  1  3  1  0  0  0  0
  1  2  1  0  0  0  0
  1  5  1  0  0  0  0
  2  8  1  0  0  0  0
  4  1  1  0  0  0  0
  6  2  1  0  0  0  0
  6 10  1  0  0  0  0
  7  2  1  0  0  0  0
  9  6  1  0  0  0  0
  9 13  1  0  0  0  0
  9 12  1  0  0  0  0
 11  6  1  0  0  0  0
 14  9  1  0  0  0  0
M  END
$$$$
