14
butane_opt
C  -3.923204   0.255841   0.013448
C  -2.696103  -0.598332   0.022800
H  -4.872736  -0.388410   0.245578
H  -4.078563   0.993639  -0.957952
H  -3.812341   0.714157   0.721414
C  -1.432762   0.205839   0.022343
H  -2.714441  -1.245722  -0.834509
H  -2.712961  -1.253897   0.940424
C  -0.158541  -0.711340   0.036016
H  -1.421717   0.896888   0.922148
H  -1.402340   0.758092  -0.815493
H  -0.088280  -1.208318   0.864234
H   0.788215  -0.132487   0.051140
H  -0.174339  -1.426755  -0.861288
