butane_opt
 OpenBabel08242015423D

 14 13  0  0  0  0  0  0  0  0999 V2000
   -3.9713    0.2569   -0.0378 C   0  0  0  0  0  0  0  0  0  0  0  0
   -2.7089   -0.6021    0.0907 C   0  0  0  0  0  0  0  0  0  0  0  0
   -4.9079   -0.3968   -0.0835 H   0  0  0  0  0  0  0  0  0  0  0  0
   -3.9000    0.8546   -0.9165 H   0  0  0  0  0  0  0  0  0  0  0  0
   -3.9064    0.9210    0.8132 H   0  0  0  0  0  0  0  0  0  0  0  0
   -1.3951    0.2102    0.0706 C   0  0  0  0  0  0  0  0  0  0  0  0
   -2.6628   -1.2470   -0.7227 H   0  0  0  0  0  0  0  0  0  0  0  0
   -2.8606   -1.2684    1.0481 H   0  0  0  0  0  0  0  0  0  0  0  0
   -0.1392   -0.7110   -0.0150 C   0  0  0  0  0  0  0  0  0  0  0  0
   -1.3155    0.9453    0.9884 H   0  0  0  0  0  0  0  0  0  0  0  0
   -1.4304    0.8069   -0.8098 H   0  0  0  0  0  0  0  0  0  0  0  0
    0.0019   -1.4151    0.9027 H   0  0  0  0  0  0  0  0  0  0  0  0
    0.7356   -0.1300   -0.1438 H   0  0  0  0  0  0  0  0  0  0  0  0
   -0.2067   -1.3975   -0.9327 H   0  0  0  0  0  0  0  0  0  0  0  0
  1  2  1  0  0  0  0
  1  5  1  0  0  0  0
  2  8  1  0  0  0  0
  3  1  1  0  0  0  0
  4  1  1  0  0  0  0
  6  2  1  0  0  0  0
  6 10  1  0  0  0  0
  7  2  1  0  0  0  0
  9  6  1  0  0  0  0
  9 12  1  0  0  0  0
 11  6  1  0  0  0  0
 13  9  1  0  0  0  0
 14  9  1  0  0  0  0
M  END
$$$$
