14
butane_opt
C  -3.971304   0.256892  -0.037843
C  -2.708856  -0.602108   0.090726
H  -4.907899  -0.396787  -0.083538
H  -3.900047   0.854647  -0.916509
H  -3.906391   0.921038   0.813225
C  -1.395075   0.210155   0.070590
H  -2.662791  -1.246965  -0.722708
H  -2.860551  -1.268401   1.048129
C  -0.139249  -0.711019  -0.014992
H  -1.315486   0.945262   0.988449
H  -1.430351   0.806908  -0.809803
H   0.001901  -1.415131   0.902673
H   0.735634  -0.129951  -0.143767
H  -0.206691  -1.397549  -0.932659
