14
butane_opt
C  -3.961365   0.260053  -0.009147
C  -2.711860  -0.605137   0.090356
H  -4.865719  -0.378720   0.011412
H  -3.879177   0.894962  -0.969927
H  -3.991175   0.792236   0.721593
C  -1.421149   0.207156   0.035321
H  -2.750058  -1.215846  -0.710931
H  -2.654388  -1.274725   1.005699
C  -0.141314  -0.709225  -0.002762
H  -1.353799   0.847573   0.911687
H  -1.376320   0.824625  -0.853621
H  -0.133701  -1.101712   0.758267
H   0.762369  -0.138028   0.157372
H   0.037782  -1.559741  -0.998991
