butane_opt
 OpenBabel08242015423D

 14 13  0  0  0  0  0  0  0  0999 V2000
   -3.9451    0.2838   -0.0081 C   0  0  0  0  0  0  0  0  0  0  0  0
   -2.6829   -0.6448    0.0759 C   0  0  0  0  0  0  0  0  0  0  0  0
   -4.8174   -0.2629    0.0437 H   0  0  0  0  0  0  0  0  0  0  0  0
   -3.9690    0.9905   -0.9509 H   0  0  0  0  0  0  0  0  0  0  0  0
   -3.9131    0.8300    0.7665 H   0  0  0  0  0  0  0  0  0  0  0  0
   -1.3962    0.1554    0.0228 C   0  0  0  0  0  0  0  0  0  0  0  0
   -2.7330   -1.2179   -0.7027 H   0  0  0  0  0  0  0  0  0  0  0  0
   -2.5909   -1.3297    0.9987 H   0  0  0  0  0  0  0  0  0  0  0  0
   -0.1934   -0.6659    0.0061 C   0  0  0  0  0  0  0  0  0  0  0  0
   -1.4004    0.9465    0.9247 H   0  0  0  0  0  0  0  0  0  0  0  0
   -1.4173    0.7131   -0.8567 H   0  0  0  0  0  0  0  0  0  0  0  0
   -0.1975   -1.1214    0.8144 H   0  0  0  0  0  0  0  0  0  0  0  0
    0.6899   -0.0937    0.1900 H   0  0  0  0  0  0  0  0  0  0  0  0
   -0.0876   -1.4708   -0.9877 H   0  0  0  0  0  0  0  0  0  0  0  0
  1  3  1  0  0  0  0
  1  2  1  0  0  0  0
  1  5  1  0  0  0  0
  2  8  1  0  0  0  0
  4  1  1  0  0  0  0
  6  2  1  0  0  0  0
  6 10  1  0  0  0  0
  7  2  1  0  0  0  0
  9  6  1  0  0  0  0
  9 13  1  0  0  0  0
  9 12  1  0  0  0  0
 11  6  1  0  0  0  0
 14  9  1  0  0  0  0
M  END
$$$$
