14
butane_opt
C  -3.935259   0.269470   0.000432
C  -2.694704  -0.626089   0.052495
H  -4.816527  -0.309627   0.263583
H  -4.029084   1.075888  -0.971605
H  -3.899609   0.728893   0.724673
C  -1.398158   0.182778   0.031445
H  -2.754553  -1.336297  -0.789662
H  -2.724135  -1.142103   0.847105
C  -0.160643  -0.702006   0.011793
H  -1.397049   0.925802   0.899484
H  -1.430437   0.783802  -0.853059
H  -0.252529  -1.209949   0.882639
H   0.732963  -0.071000   0.135001
H  -0.184797  -1.411017  -0.876276
