butane_opt
 OpenBabel08242015423D

 14 13  0  0  0  0  0  0  0  0999 V2000
   -3.9087    0.2702   -0.0439 C   0  0  0  0  0  0  0  0  0  0  0  0
   -2.7070   -0.6090    0.1263 C   0  0  0  0  0  0  0  0  0  0  0  0
   -4.8617   -0.3423   -0.2132 H   0  0  0  0  0  0  0  0  0  0  0  0
   -3.8312    0.6882   -0.8061 H   0  0  0  0  0  0  0  0  0  0  0  0
   -4.0563    1.0463    0.8564 H   0  0  0  0  0  0  0  0  0  0  0  0
   -1.4080    0.1776    0.0550 C   0  0  0  0  0  0  0  0  0  0  0  0
   -2.6824   -1.2783   -0.7246 H   0  0  0  0  0  0  0  0  0  0  0  0
   -2.7834   -1.2848    1.0491 H   0  0  0  0  0  0  0  0  0  0  0  0
   -0.1729   -0.6976   -0.0110 C   0  0  0  0  0  0  0  0  0  0  0  0
   -1.4147    0.8677    0.8853 H   0  0  0  0  0  0  0  0  0  0  0  0
   -1.4610    0.9190   -0.8885 H   0  0  0  0  0  0  0  0  0  0  0  0
   -0.1277   -1.2767    0.8031 H   0  0  0  0  0  0  0  0  0  0  0  0
    0.7511   -0.0839   -0.0960 H   0  0  0  0  0  0  0  0  0  0  0  0
   -0.1976   -1.4363   -0.9347 H   0  0  0  0  0  0  0  0  0  0  0  0
  1  2  1  0  0  0  0
  1  5  1  0  0  0  0
  2  8  1  0  0  0  0
  3  1  1  0  0  0  0
  4  1  1  0  0  0  0
  6  2  1  0  0  0  0
  6 10  1  0  0  0  0
  7  2  1  0  0  0  0
  9  6  1  0  0  0  0
  9 12  1  0  0  0  0
 11  6  1  0  0  0  0
 13  9  1  0  0  0  0
 14  9  1  0  0  0  0
M  END
$$$$
