14
butane_opt
C  -3.953301   0.260944  -0.011945
C  -2.722691  -0.607402   0.056088
H  -4.887814  -0.350172   0.228141
H  -4.070410   1.116112  -1.005972
H  -3.862527   0.639389   0.669888
C  -1.405028   0.187998   0.065856
H  -2.721684  -1.236290  -0.798791
H  -2.748833  -1.167853   0.913008
C  -0.135105  -0.701403  -0.012467
H  -1.307202   0.912816   0.967167
H  -1.360215   0.766224  -0.792766
H  -0.128898  -1.258822   0.854421
H   0.722462  -0.163271   0.082341
H  -0.059132  -1.424657  -0.886095
