butane_opt
 OpenBabel08242015423D

 14 13  0  0  0  0  0  0  0  0999 V2000
   -3.9387    0.2738   -0.0544 C   0  0  0  0  0  0  0  0  0  0  0  0
   -2.7000   -0.6156    0.1168 C   0  0  0  0  0  0  0  0  0  0  0  0
   -4.8652   -0.2747   -0.1399 H   0  0  0  0  0  0  0  0  0  0  0  0
   -3.8471    0.7713   -0.9095 H   0  0  0  0  0  0  0  0  0  0  0  0
   -4.0731    1.0531    0.8661 H   0  0  0  0  0  0  0  0  0  0  0  0
   -1.3924    0.1700    0.0629 C   0  0  0  0  0  0  0  0  0  0  0  0
   -2.6117   -1.1923   -0.6530 H   0  0  0  0  0  0  0  0  0  0  0  0
   -2.7552   -1.3764    1.1200 H   0  0  0  0  0  0  0  0  0  0  0  0
   -0.1787   -0.7010   -0.0294 C   0  0  0  0  0  0  0  0  0  0  0  0
   -1.3107    0.8542    0.9341 H   0  0  0  0  0  0  0  0  0  0  0  0
   -1.4656    0.7546   -0.7418 H   0  0  0  0  0  0  0  0  0  0  0  0
   -0.1491   -1.1979    0.7791 H   0  0  0  0  0  0  0  0  0  0  0  0
    0.8304   -0.0131   -0.0566 H   0  0  0  0  0  0  0  0  0  0  0  0
   -0.2566   -1.3710   -0.9000 H   0  0  0  0  0  0  0  0  0  0  0  0
  1  2  1  0  0  0  0
  1  5  1  0  0  0  0
  2  8  1  0  0  0  0
  3  1  1  0  0  0  0
  4  1  1  0  0  0  0
  6  2  1  0  0  0  0
  6 10  1  0  0  0  0
  7  2  1  0  0  0  0
  9  6  1  0  0  0  0
  9 12  1  0  0  0  0
 11  6  1  0  0  0  0
 13  9  1  0  0  0  0
 14  9  1  0  0  0  0
M  END
$$$$
