14
butane_opt
C  -3.947937   0.255605  -0.023246
C  -2.710536  -0.604725   0.090989
H  -4.853679  -0.361248  -0.047661
H  -3.995779   0.806399  -0.857219
H  -4.005552   1.005025   0.855784
C  -1.395399   0.190985   0.028389
H  -2.707204  -1.184778  -0.745523
H  -2.836795  -1.328776   1.064572
C  -0.139342  -0.710570  -0.002359
H  -1.388064   0.925305   0.909486
H  -1.420935   0.823701  -0.876960
H  -0.101229  -1.207934   0.816527
H   0.731854  -0.118006   0.102877
H  -0.115174  -1.423743  -0.902197
