14
butane_opt
C  -3.942576   0.280627   0.051422
C  -2.665215  -0.651415  -0.003166
H  -4.775198  -0.256330   0.093124
H  -4.007006   0.887800  -0.848389
H  -3.923581   0.979654   0.945304
C  -1.403745   0.170861   0.002823
H  -2.723202  -1.421740  -0.926406
H  -2.688584  -1.145946   0.792281
C  -0.187092  -0.680329   0.051254
H  -1.456885   0.802852   0.761806
H  -1.397756   0.839800  -0.931221
H  -0.183803  -1.420179   1.018670
H   0.748209  -0.049145  -0.016685
H  -0.239872  -1.105764  -0.646074
