14
butane_opt
C  -3.943640   0.273417   0.004121
C  -2.709026  -0.625805   0.056082
H  -4.828151  -0.289418   0.017752
H  -4.024679   0.952171  -0.935198
H  -4.038792   0.929494   0.842581
C  -1.395808   0.166890   0.021698
H  -2.649580  -1.224256  -0.718923
H  -2.738197  -1.361846   1.003743
C  -0.158368  -0.684181   0.016015
H  -1.406326   0.880265   0.933420
H  -1.313162   0.813858  -0.868894
H  -0.217274  -1.172220   0.856163
H   0.834004  -0.062486   0.056655
H  -0.158997  -1.496234  -0.951149
