butane_opt
 OpenBabel08242015423D

 14 13  0  0  0  0  0  0  0  0999 V2000
   -3.9565    0.2607   -0.0405 C   0  0  0  0  0  0  0  0  0  0  0  0
   -2.7105   -0.6090    0.1007 C   0  0  0  0  0  0  0  0  0  0  0  0
   -4.9708   -0.4019   -0.0491 H   0  0  0  0  0  0  0  0  0  0  0  0
   -3.9216    0.8612   -0.9041 H   0  0  0  0  0  0  0  0  0  0  0  0
   -3.9637    0.9449    0.8765 H   0  0  0  0  0  0  0  0  0  0  0  0
   -1.3886    0.2010    0.0580 C   0  0  0  0  0  0  0  0  0  0  0  0
   -2.7043   -1.2575   -0.7292 H   0  0  0  0  0  0  0  0  0  0  0  0
   -2.7679   -1.2382    0.9895 H   0  0  0  0  0  0  0  0  0  0  0  0
   -0.1511   -0.7131   -0.0123 C   0  0  0  0  0  0  0  0  0  0  0  0
   -1.3352    0.8896    0.8765 H   0  0  0  0  0  0  0  0  0  0  0  0
   -1.4699    0.8607   -0.8382 H   0  0  0  0  0  0  0  0  0  0  0  0
    0.0002   -1.2779    0.8295 H   0  0  0  0  0  0  0  0  0  0  0  0
    0.7537   -0.1308    0.0092 H   0  0  0  0  0  0  0  0  0  0  0  0
   -0.1555   -1.4133   -0.8856 H   0  0  0  0  0  0  0  0  0  0  0  0
  1  2  1  0  0  0  0
  1  5  1  0  0  0  0
  2  8  1  0  0  0  0
  3  1  1  0  0  0  0
  4  1  1  0  0  0  0
  6  2  1  0  0  0  0
  6 10  1  0  0  0  0
  7  2  1  0  0  0  0
  9 13  1  0  0  0  0
  9  6  1  0  0  0  0
  9 12  1  0  0  0  0
 11  6  1  0  0  0  0
 14  9  1  0  0  0  0
M  END
$$$$
