butane_opt
 OpenBabel08242015423D

 14 13  0  0  0  0  0  0  0  0999 V2000
   -3.9458    0.2654   -0.0252 C   0  0  0  0  0  0  0  0  0  0  0  0
   -2.6850   -0.6229    0.0979 C   0  0  0  0  0  0  0  0  0  0  0  0
   -4.8165   -0.2399   -0.1600 H   0  0  0  0  0  0  0  0  0  0  0  0
   -3.8325    0.8156   -0.9234 H   0  0  0  0  0  0  0  0  0  0  0  0
   -4.1011    1.0135    0.8359 H   0  0  0  0  0  0  0  0  0  0  0  0
   -1.4007    0.1739    0.0401 C   0  0  0  0  0  0  0  0  0  0  0  0
   -2.7552   -1.2254   -0.6875 H   0  0  0  0  0  0  0  0  0  0  0  0
   -2.7301   -1.3036    1.0490 H   0  0  0  0  0  0  0  0  0  0  0  0
   -0.1789   -0.6849   -0.0106 C   0  0  0  0  0  0  0  0  0  0  0  0
   -1.2818    0.9404    0.9279 H   0  0  0  0  0  0  0  0  0  0  0  0
   -1.4579    0.7080   -0.7537 H   0  0  0  0  0  0  0  0  0  0  0  0
   -0.0595   -1.3148    0.9117 H   0  0  0  0  0  0  0  0  0  0  0  0
    0.7674   -0.0713   -0.0726 H   0  0  0  0  0  0  0  0  0  0  0  0
   -0.2417   -1.3704   -0.9033 H   0  0  0  0  0  0  0  0  0  0  0  0
  1  2  1  0  0  0  0
  1  5  1  0  0  0  0
  2  8  1  0  0  0  0
  3  1  1  0  0  0  0
  4  1  1  0  0  0  0
  6  2  1  0  0  0  0
  6 10  1  0  0  0  0
  7  2  1  0  0  0  0
  9  6  1  0  0  0  0
  9 12  1  0  0  0  0
 11  6  1  0  0  0  0
 13  9  1  0  0  0  0
 14  9  1  0  0  0  0
M  END
$$$$
