butane_opt
 OpenBabel08242015423D

 14 13  0  0  0  0  0  0  0  0999 V2000
   -3.9566    0.2434    0.0754 C   0  0  0  0  0  0  0  0  0  0  0  0
   -2.7107   -0.6263   -0.0444 C   0  0  0  0  0  0  0  0  0  0  0  0
   -4.8397   -0.3052    0.2138 H   0  0  0  0  0  0  0  0  0  0  0  0
   -4.1270    0.9654   -0.8720 H   0  0  0  0  0  0  0  0  0  0  0  0
   -3.8152    0.9475    0.9408 H   0  0  0  0  0  0  0  0  0  0  0  0
   -1.4037    0.2164   -0.0373 C   0  0  0  0  0  0  0  0  0  0  0  0
   -2.7403   -1.3069   -0.9151 H   0  0  0  0  0  0  0  0  0  0  0  0
   -2.6936   -1.2212    0.8061 H   0  0  0  0  0  0  0  0  0  0  0  0
   -0.1379   -0.7035    0.0937 C   0  0  0  0  0  0  0  0  0  0  0  0
   -1.5166    0.9378    0.7860 H   0  0  0  0  0  0  0  0  0  0  0  0
   -1.3265    0.7943   -0.8867 H   0  0  0  0  0  0  0  0  0  0  0  0
   -0.0699   -1.4201    1.0308 H   0  0  0  0  0  0  0  0  0  0  0  0
    0.7448   -0.1502   -0.0258 H   0  0  0  0  0  0  0  0  0  0  0  0
   -0.1247   -1.2703   -0.6853 H   0  0  0  0  0  0  0  0  0  0  0  0
  1  3  1  0  0  0  0
  1  5  1  0  0  0  0
  2  6  1  0  0  0  0
  2  1  1  0  0  0  0
  2  8  1  0  0  0  0
  4  1  1  0  0  0  0
  6  9  1  0  0  0  0
  6 10  1  0  0  0  0
  7  2  1  0  0  0  0
  9 12  1  0  0  0  0
 11  6  1  0  0  0  0
 13  9  1  0  0  0  0
 14  9  1  0  0  0  0
M  END
$$$$
