14
butane_opt
C  -3.938003   0.258692  -0.008390
C  -2.703243  -0.602982   0.063756
H  -4.864781  -0.370802   0.086027
H  -3.897197   0.949097  -0.942078
H  -3.886769   0.803608   0.782892
C  -1.416987   0.192546   0.040073
H  -2.695006  -1.215758  -0.756863
H  -2.720538  -1.239316   0.986072
C  -0.161192  -0.708674   0.010288
H  -1.360055   0.855813   0.892441
H  -1.416876   0.837492  -0.849361
H  -0.155510  -1.178403   0.805192
H   0.733471  -0.104717   0.082192
H  -0.126075  -1.493989  -0.940415
