14
butane_opt
C  -3.956642   0.243358   0.075364
C  -2.710697  -0.626255  -0.044387
H  -4.839734  -0.305241   0.213849
H  -4.126991   0.965411  -0.872027
H  -3.815220   0.947526   0.940847
C  -1.403651   0.216412  -0.037316
H  -2.740305  -1.306907  -0.915148
H  -2.693583  -1.221234   0.806113
C  -0.137912  -0.703467   0.093739
H  -1.516608   0.937790   0.786001
H  -1.326521   0.794303  -0.886672
H  -0.069895  -1.420080   1.030794
H   0.744819  -0.150180  -0.025786
H  -0.124713  -1.270324  -0.685324
