14
butane_opt
C  -3.935642   0.238977  -0.030090
C  -2.709952  -0.592496   0.076627
H  -4.778752  -0.283669  -0.001669
H  -3.878923   0.829224  -0.908409
H  -4.011475   0.929785   0.822601
C  -1.412972   0.198331   0.052648
H  -2.668348  -1.266697  -0.784290
H  -2.767363  -1.262837   1.031841
C  -0.156878  -0.702522  -0.010405
H  -1.309243   0.995864   1.019221
H  -1.531508   0.773781  -0.759643
H  -0.054981  -1.434331   0.959842
H   0.761148  -0.124413  -0.182233
H  -0.200042  -1.331435  -0.803953
