butane_opt
 OpenBabel08242015423D

 14 13  0  0  0  0  0  0  0  0999 V2000
   -3.9241    0.2753    0.0752 C   0  0  0  0  0  0  0  0  0  0  0  0
   -2.6834   -0.6304   -0.0466 C   0  0  0  0  0  0  0  0  0  0  0  0
   -4.8467   -0.2952    0.3396 H   0  0  0  0  0  0  0  0  0  0  0  0
   -4.0721    0.9419   -0.8191 H   0  0  0  0  0  0  0  0  0  0  0  0
   -3.8316    0.8637    0.8879 H   0  0  0  0  0  0  0  0  0  0  0  0
   -1.4199    0.1761   -0.0467 C   0  0  0  0  0  0  0  0  0  0  0  0
   -2.7899   -1.3613   -1.0015 H   0  0  0  0  0  0  0  0  0  0  0  0
   -2.6468   -1.2217    0.7934 H   0  0  0  0  0  0  0  0  0  0  0  0
   -0.1647   -0.6804    0.1098 C   0  0  0  0  0  0  0  0  0  0  0  0
   -1.4536    0.8166    0.7688 H   0  0  0  0  0  0  0  0  0  0  0  0
   -1.3811    0.8110   -0.9476 H   0  0  0  0  0  0  0  0  0  0  0  0
   -0.2026   -1.3000    0.9863 H   0  0  0  0  0  0  0  0  0  0  0  0
    0.7044   -0.0983    0.0659 H   0  0  0  0  0  0  0  0  0  0  0  0
   -0.1982   -1.3130   -0.7295 H   0  0  0  0  0  0  0  0  0  0  0  0
  1  3  1  0  0  0  0
  1  5  1  0  0  0  0
  2  1  1  0  0  0  0
  2  8  1  0  0  0  0
  4  1  1  0  0  0  0
  6  2  1  0  0  0  0
  6  9  1  0  0  0  0
  6 10  1  0  0  0  0
  7  2  1  0  0  0  0
  9 12  1  0  0  0  0
 11  6  1  0  0  0  0
 13  9  1  0  0  0  0
 14  9  1  0  0  0  0
M  END
$$$$
