14
butane_opt
C  -3.939600   0.275024  -0.048341
C  -2.673312  -0.630035   0.117381
H  -4.850738  -0.340436  -0.069458
H  -3.874171   0.827862  -0.933902
H  -4.066350   0.983298   0.829356
C  -1.415384   0.171414   0.061676
H  -2.579609  -1.222875  -0.652858
H  -2.717909  -1.337504   1.083988
C  -0.183420  -0.683744  -0.035112
H  -1.341149   0.886319   0.940933
H  -1.367584   0.833612  -0.803708
H  -0.186099  -1.166065   0.793176
H   0.728160  -0.106933   0.063246
H  -0.215374  -1.434822  -0.961887
