butane_opt
 OpenBabel08242015423D

 14 13  0  0  0  0  0  0  0  0999 V2000
   -3.9629    0.2681    0.0124 C   0  0  0  0  0  0  0  0  0  0  0  0
   -2.7008   -0.6275    0.0187 C   0  0  0  0  0  0  0  0  0  0  0  0
   -4.8580   -0.3022    0.0032 H   0  0  0  0  0  0  0  0  0  0  0  0
   -4.0609    0.8613   -0.8408 H   0  0  0  0  0  0  0  0  0  0  0  0
   -3.9976    1.0362    0.8659 H   0  0  0  0  0  0  0  0  0  0  0  0
   -1.3973    0.1818    0.0488 C   0  0  0  0  0  0  0  0  0  0  0  0
   -2.6314   -1.3248   -0.8560 H   0  0  0  0  0  0  0  0  0  0  0  0
   -2.7415   -1.3037    0.9358 H   0  0  0  0  0  0  0  0  0  0  0  0
   -0.1493   -0.6900    0.0206 C   0  0  0  0  0  0  0  0  0  0  0  0
   -1.4089    0.8989    0.9156 H   0  0  0  0  0  0  0  0  0  0  0  0
   -1.3918    0.7787   -0.8667 H   0  0  0  0  0  0  0  0  0  0  0  0
   -0.0024   -1.5183    1.0577 H   0  0  0  0  0  0  0  0  0  0  0  0
    0.8631   -0.0022   -0.2284 H   0  0  0  0  0  0  0  0  0  0  0  0
   -0.2791   -1.1667   -0.7197 H   0  0  0  0  0  0  0  0  0  0  0  0
  1  2  1  0  0  0  0
  1  5  1  0  0  0  0
  2  6  1  0  0  0  0
  2  8  1  0  0  0  0
  3  1  1  0  0  0  0
  4  1  1  0  0  0  0
  6 10  1  0  0  0  0
  7  2  1  0  0  0  0
  9  6  1  0  0  0  0
  9 12  1  0  0  0  0
 11  6  1  0  0  0  0
 13  9  1  0  0  0  0
 14  9  1  0  0  0  0
M  END
$$$$
