14
butane_opt
C  -3.957202   0.267715  -0.018311
C  -2.684777  -0.617248   0.095845
H  -4.929827  -0.383047  -0.224340
H  -3.853940   0.718744  -0.823748
H  -4.058915   1.114285   0.972955
C  -1.390746   0.185528   0.032421
H  -2.611426  -1.256497  -0.706689
H  -2.777185  -1.236964   1.002579
C  -0.155840  -0.694804   0.010491
H  -1.391924   0.767871   0.833979
H  -1.457533   0.839313  -0.916804
H  -0.164716  -1.267035   0.875686
H   0.721425  -0.105185  -0.090467
H  -0.223146  -1.371774  -0.911276
