butane_opt
 OpenBabel08242015423D

 14 13  0  0  0  0  0  0  0  0999 V2000
   -3.9301    0.2533    0.0141 C   0  0  0  0  0  0  0  0  0  0  0  0
   -2.7057   -0.5990    0.0572 C   0  0  0  0  0  0  0  0  0  0  0  0
   -4.9099   -0.3955   -0.0762 H   0  0  0  0  0  0  0  0  0  0  0  0
   -3.8228    0.7492   -0.7564 H   0  0  0  0  0  0  0  0  0  0  0  0
   -4.0019    1.0767    0.9717 H   0  0  0  0  0  0  0  0  0  0  0  0
   -1.4006    0.2007   -0.0076 C   0  0  0  0  0  0  0  0  0  0  0  0
   -2.7159   -1.3391   -0.8608 H   0  0  0  0  0  0  0  0  0  0  0  0
   -2.6446   -1.1256    0.9119 H   0  0  0  0  0  0  0  0  0  0  0  0
   -0.1690   -0.7097    0.0365 C   0  0  0  0  0  0  0  0  0  0  0  0
   -1.3576    0.7718    0.7824 H   0  0  0  0  0  0  0  0  0  0  0  0
   -1.4433    0.8657   -0.9055 H   0  0  0  0  0  0  0  0  0  0  0  0
   -0.1892   -1.3960    0.9720 H   0  0  0  0  0  0  0  0  0  0  0  0
    0.7270   -0.1280   -0.0015 H   0  0  0  0  0  0  0  0  0  0  0  0
   -0.1790   -1.3125   -0.7720 H   0  0  0  0  0  0  0  0  0  0  0  0
  1  2  1  0  0  0  0
  1  5  1  0  0  0  0
  2  8  1  0  0  0  0
  3  1  1  0  0  0  0
  4  1  1  0  0  0  0
  6  9  1  0  0  0  0
  6  2  1  0  0  0  0
  6 10  1  0  0  0  0
  7  2  1  0  0  0  0
  9 12  1  0  0  0  0
 11  6  1  0  0  0  0
 13  9  1  0  0  0  0
 14  9  1  0  0  0  0
M  END
$$$$
