14
butane_opt
C  -3.927886   0.253309  -0.013248
C  -2.699108  -0.600269   0.070196
H  -4.881250  -0.352268  -0.036840
H  -3.920023   0.870525  -0.915735
H  -3.944455   0.886668   0.832040
C  -1.413773   0.199048   0.047627
H  -2.638599  -1.235761  -0.741454
H  -2.780399  -1.285604   0.984486
C  -0.174971  -0.712229  -0.006430
H  -1.334248   0.950027   0.963759
H  -1.402657   0.814540  -0.827146
H  -0.085673  -1.323283   0.900670
H   0.725771  -0.125299  -0.054842
H  -0.165924  -1.358778  -0.842637
