14
butane_opt
C  -3.939399   0.280490   0.053114
C  -2.680088  -0.613659   0.025932
H  -4.863295  -0.305861  -0.162776
H  -3.970439   0.714136  -0.735256
H  -3.971082   1.108732   1.054700
C  -1.395010   0.160028  -0.040682
H  -2.744318  -1.363873  -0.873023
H  -2.724307  -1.205342   0.842886
C  -0.188129  -0.681104   0.071954
H  -1.461739   0.702289   0.725615
H  -1.308275   0.841099  -0.980108
H  -0.159429  -1.348386   1.024259
H   0.815390  -0.031282  -0.030052
H  -0.216480  -1.313734  -0.735545
