14
butane_opt
C  -3.956968   0.279459   0.049898
C  -2.680123  -0.619445   0.014350
H  -4.906196  -0.351782   0.017672
H  -3.969816   0.832301  -0.790054
H  -3.952781   0.962090   0.958526
C  -1.410759   0.157043  -0.029100
H  -2.793258  -1.300234  -0.834002
H  -2.616968  -1.237256   0.919723
C  -0.169037  -0.669259   0.065567
H  -1.425569   0.734403   0.707782
H  -1.327914   0.904357  -1.007569
H  -0.234465  -1.202160   0.917717
H   0.785988  -0.086537   0.190864
H   0.006940  -1.503136  -0.870717
