14
butane_opt
C  -3.973704   0.278676   0.082908
C  -2.692752  -0.647589  -0.014603
H  -4.816321  -0.253727   0.020115
H  -4.021758   0.878918  -0.804004
H  -3.998065   1.006900   0.986378
C  -1.378024   0.177079  -0.071727
H  -2.784350  -1.262668  -0.861997
H  -2.720680  -1.261652   0.906822
C  -0.165352  -0.681436   0.078641
H  -1.411468   0.818115   0.788021
H  -1.263573   0.794573  -0.931304
H  -0.209215  -1.239473   0.965178
H   0.742662  -0.138819   0.212631
H  -0.026772  -1.330558  -0.747980
