butane_opt
 OpenBabel08242015423D

 14 13  0  0  0  0  0  0  0  0999 V2000
   -3.9447    0.2713   -0.0076 C   0  0  0  0  0  0  0  0  0  0  0  0
   -2.6905   -0.6229    0.0776 C   0  0  0  0  0  0  0  0  0  0  0  0
   -4.8238   -0.3065    0.0239 H   0  0  0  0  0  0  0  0  0  0  0  0
   -3.9334    0.9616   -0.9465 H   0  0  0  0  0  0  0  0  0  0  0  0
   -3.9575    0.8674    0.8223 H   0  0  0  0  0  0  0  0  0  0  0  0
   -1.4176    0.1714    0.0231 C   0  0  0  0  0  0  0  0  0  0  0  0
   -2.7294   -1.2532   -0.7418 H   0  0  0  0  0  0  0  0  0  0  0  0
   -2.6491   -1.2765    0.9726 H   0  0  0  0  0  0  0  0  0  0  0  0
   -0.1644   -0.6836    0.0101 C   0  0  0  0  0  0  0  0  0  0  0  0
   -1.3697    0.8467    0.8949 H   0  0  0  0  0  0  0  0  0  0  0  0
   -1.4004    0.7694   -0.8512 H   0  0  0  0  0  0  0  0  0  0  0  0
   -0.2101   -1.1711    0.8107 H   0  0  0  0  0  0  0  0  0  0  0  0
    0.7869   -0.0374    0.1278 H   0  0  0  0  0  0  0  0  0  0  0  0
   -0.1423   -1.4985   -0.9417 H   0  0  0  0  0  0  0  0  0  0  0  0
  1  3  1  0  0  0  0
  1  2  1  0  0  0  0
  1  5  1  0  0  0  0
  2  8  1  0  0  0  0
  4  1  1  0  0  0  0
  6  2  1  0  0  0  0
  6 10  1  0  0  0  0
  7  2  1  0  0  0  0
  9  6  1  0  0  0  0
  9 13  1  0  0  0  0
  9 12  1  0  0  0  0
 11  6  1  0  0  0  0
 14  9  1  0  0  0  0
M  END
$$$$
