14
butane_opt
C  -3.946283   0.298073  -0.005341
C  -2.703300  -0.664897   0.041416
H  -4.859908  -0.293400   0.310007
H  -4.063652   1.140824  -1.044205
H  -3.971882   0.735330   0.691406
C  -1.379746   0.169886   0.063791
H  -2.688031  -1.323901  -0.829989
H  -2.715411  -1.235880   0.926494
C  -0.175015  -0.674483   0.005181
H  -1.289585   0.864958   0.914763
H  -1.465744   0.771566  -0.821898
H  -0.142105  -1.184729   0.827015
H   0.752702  -0.109457   0.093068
H  -0.134627  -1.373979  -0.900457
