butane_opt
 OpenBabel08242015423D

 14 13  0  0  0  0  0  0  0  0999 V2000
   -3.9598    0.2694    0.0364 C   0  0  0  0  0  0  0  0  0  0  0  0
   -2.6968   -0.6246    0.0091 C   0  0  0  0  0  0  0  0  0  0  0  0
   -4.8857   -0.3086    0.2059 H   0  0  0  0  0  0  0  0  0  0  0  0
   -4.0057    0.9329   -0.8810 H   0  0  0  0  0  0  0  0  0  0  0  0
   -3.8909    0.8933    0.8891 H   0  0  0  0  0  0  0  0  0  0  0  0
   -1.3919    0.1822   -0.0180 C   0  0  0  0  0  0  0  0  0  0  0  0
   -2.7511   -1.3131   -0.8540 H   0  0  0  0  0  0  0  0  0  0  0  0
   -2.6987   -1.1850    0.8755 H   0  0  0  0  0  0  0  0  0  0  0  0
   -0.1580   -0.6933    0.0535 C   0  0  0  0  0  0  0  0  0  0  0  0
   -1.4019    0.8864    0.8532 H   0  0  0  0  0  0  0  0  0  0  0  0
   -1.3691    0.7815   -0.8835 H   0  0  0  0  0  0  0  0  0  0  0  0
   -0.2180   -1.3266    0.9662 H   0  0  0  0  0  0  0  0  0  0  0  0
    0.7592   -0.0875    0.0876 H   0  0  0  0  0  0  0  0  0  0  0  0
   -0.0859   -1.3500   -0.7950 H   0  0  0  0  0  0  0  0  0  0  0  0
  1  3  1  0  0  0  0
  1  5  1  0  0  0  0
  2  1  1  0  0  0  0
  2  8  1  0  0  0  0
  4  1  1  0  0  0  0
  6  2  1  0  0  0  0
  6  9  1  0  0  0  0
  6 10  1  0  0  0  0
  7  2  1  0  0  0  0
  9 13  1  0  0  0  0
  9 12  1  0  0  0  0
 11  6  1  0  0  0  0
 14  9  1  0  0  0  0
M  END
$$$$
