butane_opt
 OpenBabel08242015423D

 14 13  0  0  0  0  0  0  0  0999 V2000
   -3.9256    0.2342    0.0100 C   0  0  0  0  0  0  0  0  0  0  0  0
   -2.6905   -0.5842    0.0312 C   0  0  0  0  0  0  0  0  0  0  0  0
   -4.8671   -0.3456    0.2732 H   0  0  0  0  0  0  0  0  0  0  0  0
   -3.8906    1.0649   -1.0319 H   0  0  0  0  0  0  0  0  0  0  0  0
   -3.9118    0.7144    0.7805 H   0  0  0  0  0  0  0  0  0  0  0  0
   -1.4089    0.2048    0.0411 C   0  0  0  0  0  0  0  0  0  0  0  0
   -2.8463   -1.2868   -0.8792 H   0  0  0  0  0  0  0  0  0  0  0  0
   -2.6862   -1.1863    0.9322 H   0  0  0  0  0  0  0  0  0  0  0  0
   -0.1758   -0.7158    0.0186 C   0  0  0  0  0  0  0  0  0  0  0  0
   -1.4134    0.9342    0.9082 H   0  0  0  0  0  0  0  0  0  0  0  0
   -1.4084    0.8243   -0.8671 H   0  0  0  0  0  0  0  0  0  0  0  0
   -0.1260   -1.2520    0.8593 H   0  0  0  0  0  0  0  0  0  0  0  0
    0.6549   -0.2006    0.0754 H   0  0  0  0  0  0  0  0  0  0  0  0
   -0.1028   -1.4172   -0.8457 H   0  0  0  0  0  0  0  0  0  0  0  0
  1  2  1  0  0  0  0
  1  3  1  0  0  0  0
  1  5  1  0  0  0  0
  2  6  1  0  0  0  0
  2  8  1  0  0  0  0
  4  1  1  0  0  0  0
  6 10  1  0  0  0  0
  7  2  1  0  0  0  0
  9  6  1  0  0  0  0
  9 13  1  0  0  0  0
  9 12  1  0  0  0  0
 11  6  1  0  0  0  0
 14  9  1  0  0  0  0
M  END
$$$$
