14
butane_opt
C  -3.925588   0.234228   0.010016
C  -2.690479  -0.584221   0.031231
H  -4.867054  -0.345564   0.273155
H  -3.890597   1.064938  -1.031867
H  -3.911834   0.714418   0.780484
C  -1.408905   0.204826   0.041066
H  -2.846307  -1.286776  -0.879228
H  -2.686220  -1.186323   0.932161
C  -0.175807  -0.715774   0.018567
H  -1.413396   0.934207   0.908186
H  -1.408357   0.824312  -0.867076
H  -0.125971  -1.252037   0.859350
H   0.654872  -0.200552   0.075442
H  -0.102770  -1.417177  -0.845719
