14
butane_opt
C  -3.940984   0.258452   0.002110
C  -2.709841  -0.597570   0.042564
H  -4.902548  -0.442234   0.206735
H  -3.982004   1.047926  -1.022861
H  -3.909132   0.728997   0.731302
C  -1.416069   0.209576   0.057909
H  -2.745280  -1.257441  -0.818333
H  -2.753374  -1.243747   0.946806
C  -0.135904  -0.711386   0.020784
H  -1.418293   0.814205   0.857067
H  -1.436447   0.803577  -0.855935
H  -0.107096  -1.186677   0.823743
H   0.791986  -0.127508   0.030676
H  -0.122143  -1.514070  -0.971575
