14
butane_opt
C  -3.962874   0.290103  -0.016172
C  -2.698037  -0.650085   0.090579
H  -4.803558  -0.298569   0.026455
H  -4.018143   0.952654  -0.944053
H  -4.006440   0.925950   0.783423
C  -1.381577   0.166856   0.022182
H  -2.762432  -1.206522  -0.676164
H  -2.694240  -1.380228   1.010902
C  -0.168716  -0.672967   0.006210
H  -1.379414   0.843818   0.878509
H  -1.365136   0.768878  -0.855449
H  -0.162997  -1.015657   0.721057
H   0.724981  -0.101791   0.213263
H  -0.039220  -1.558806  -0.991724
