butane_opt
 OpenBabel08242015423D

 14 13  0  0  0  0  0  0  0  0999 V2000
   -3.9629    0.2901   -0.0162 C   0  0  0  0  0  0  0  0  0  0  0  0
   -2.6980   -0.6501    0.0906 C   0  0  0  0  0  0  0  0  0  0  0  0
   -4.8036   -0.2986    0.0265 H   0  0  0  0  0  0  0  0  0  0  0  0
   -4.0181    0.9527   -0.9441 H   0  0  0  0  0  0  0  0  0  0  0  0
   -4.0064    0.9260    0.7834 H   0  0  0  0  0  0  0  0  0  0  0  0
   -1.3816    0.1669    0.0222 C   0  0  0  0  0  0  0  0  0  0  0  0
   -2.7624   -1.2065   -0.6762 H   0  0  0  0  0  0  0  0  0  0  0  0
   -2.6942   -1.3802    1.0109 H   0  0  0  0  0  0  0  0  0  0  0  0
   -0.1687   -0.6730    0.0062 C   0  0  0  0  0  0  0  0  0  0  0  0
   -1.3794    0.8438    0.8785 H   0  0  0  0  0  0  0  0  0  0  0  0
   -1.3651    0.7689   -0.8554 H   0  0  0  0  0  0  0  0  0  0  0  0
   -0.1630   -1.0157    0.7211 H   0  0  0  0  0  0  0  0  0  0  0  0
    0.7250   -0.1018    0.2133 H   0  0  0  0  0  0  0  0  0  0  0  0
   -0.0392   -1.5588   -0.9917 H   0  0  0  0  0  0  0  0  0  0  0  0
  1  3  1  0  0  0  0
  1  2  1  0  0  0  0
  1  5  1  0  0  0  0
  2  8  1  0  0  0  0
  4  1  1  0  0  0  0
  6  2  1  0  0  0  0
  6 10  1  0  0  0  0
  7  2  1  0  0  0  0
  9  6  1  0  0  0  0
  9 13  1  0  0  0  0
  9 12  1  0  0  0  0
 11  6  1  0  0  0  0
 14  9  1  0  0  0  0
M  END
$$$$
