butane_opt
 OpenBabel08242015423D

 14 13  0  0  0  0  0  0  0  0999 V2000
   -3.9248    0.2582    0.0672 C   0  0  0  0  0  0  0  0  0  0  0  0
   -2.7117   -0.6014   -0.0227 C   0  0  0  0  0  0  0  0  0  0  0  0
   -4.8495   -0.3766   -0.0170 H   0  0  0  0  0  0  0  0  0  0  0  0
   -3.8991    0.8004   -0.7919 H   0  0  0  0  0  0  0  0  0  0  0  0
   -3.9342    0.9114    0.9167 H   0  0  0  0  0  0  0  0  0  0  0  0
   -1.4096    0.2015    0.0013 C   0  0  0  0  0  0  0  0  0  0  0  0
   -2.7368   -1.3402   -0.9350 H   0  0  0  0  0  0  0  0  0  0  0  0
   -2.6261   -1.1166    0.8067 H   0  0  0  0  0  0  0  0  0  0  0  0
   -0.1790   -0.7034    0.0739 C   0  0  0  0  0  0  0  0  0  0  0  0
   -1.4060    0.8230    0.7761 H   0  0  0  0  0  0  0  0  0  0  0  0
   -1.3751    0.8514   -0.9354 H   0  0  0  0  0  0  0  0  0  0  0  0
    0.0138   -1.5671    1.0759 H   0  0  0  0  0  0  0  0  0  0  0  0
    0.7014   -0.1306   -0.1887 H   0  0  0  0  0  0  0  0  0  0  0  0
   -0.2109   -1.1870   -0.6757 H   0  0  0  0  0  0  0  0  0  0  0  0
  1  5  1  0  0  0  0
  2  6  1  0  0  0  0
  2  1  1  0  0  0  0
  2  8  1  0  0  0  0
  3  1  1  0  0  0  0
  4  1  1  0  0  0  0
  6  9  1  0  0  0  0
  6 10  1  0  0  0  0
  7  2  1  0  0  0  0
  9 12  1  0  0  0  0
 11  6  1  0  0  0  0
 13  9  1  0  0  0  0
 14  9  1  0  0  0  0
M  END
$$$$
