14
butane_opt
C  -3.938722   0.251023  -0.003428
C  -2.724030  -0.616091   0.049600
H  -4.859115  -0.344633   0.301733
H  -3.992376   1.105869  -1.069940
H  -3.899364   0.749566   0.751635
C  -1.409480   0.216199   0.026616
H  -2.803526  -1.297145  -0.806491
H  -2.749841  -1.281205   0.960653
C  -0.123793  -0.712624   0.010854
H  -1.458513   1.038074   0.969449
H  -1.371813   0.749646  -0.752181
H  -0.129046  -1.255343   0.841113
H   0.691570  -0.141340   0.108643
H  -0.089064  -1.463088  -0.902907
