14
butane_opt
C  -3.944197   0.274985  -0.030698
C  -2.696023  -0.646152   0.103100
H  -4.830724  -0.250312  -0.099281
H  -3.935512   0.823502  -0.905936
H  -4.112387   1.032934   0.844794
C  -1.402704   0.169843   0.056202
H  -2.670305  -1.252617  -0.720216
H  -2.738747  -1.299322   1.028461
C  -0.152112  -0.670347  -0.015672
H  -1.334148   0.782510   0.886107
H  -1.474652   0.861233  -0.867051
H  -0.147860  -1.172764   0.819906
H   0.720551  -0.145053   0.035999
H  -0.158692  -1.399587  -0.932802
