14
butane_opt
C  -3.971609   0.265151  -0.036353
C  -2.696725  -0.619189   0.074566
H  -4.834881  -0.296601   0.159600
H  -4.116236   1.086501  -1.027223
H  -3.937240   0.753418   0.664422
C  -1.385585   0.162320   0.101720
H  -2.668722  -1.285610  -0.730020
H  -2.746152  -1.205116   0.934566
C  -0.152083  -0.686574  -0.022825
H  -1.367078   0.862012   0.966629
H  -1.457258   0.832587  -0.805473
H  -0.056055  -1.235813   0.789464
H   0.804363  -0.069259  -0.021122
H  -0.180857  -1.365019  -0.921721
