butane_opt
 OpenBabel08242015423D

 14 13  0  0  0  0  0  0  0  0999 V2000
   -3.9364    0.2481    0.0456 C   0  0  0  0  0  0  0  0  0  0  0  0
   -2.6892   -0.6018    0.0100 C   0  0  0  0  0  0  0  0  0  0  0  0
   -4.8759   -0.3888    0.0659 H   0  0  0  0  0  0  0  0  0  0  0  0
   -4.0062    0.8441   -0.8072 H   0  0  0  0  0  0  0  0  0  0  0  0
   -3.8646    0.9761    0.9552 H   0  0  0  0  0  0  0  0  0  0  0  0
   -1.4160    0.1957   -0.0339 C   0  0  0  0  0  0  0  0  0  0  0  0
   -2.7397   -1.2656   -0.8569 H   0  0  0  0  0  0  0  0  0  0  0  0
   -2.7128   -1.2252    0.9064 H   0  0  0  0  0  0  0  0  0  0  0  0
   -0.1684   -0.7056    0.0663 C   0  0  0  0  0  0  0  0  0  0  0  0
   -1.4018    0.8706    0.8015 H   0  0  0  0  0  0  0  0  0  0  0  0
   -1.4106    0.8900   -0.9662 H   0  0  0  0  0  0  0  0  0  0  0  0
   -0.1546   -1.2956    0.9622 H   0  0  0  0  0  0  0  0  0  0  0  0
    0.7203   -0.1098    0.1342 H   0  0  0  0  0  0  0  0  0  0  0  0
   -0.0524   -1.4200   -0.8093 H   0  0  0  0  0  0  0  0  0  0  0  0
  1  3  1  0  0  0  0
  1  5  1  0  0  0  0
  2  1  1  0  0  0  0
  2  8  1  0  0  0  0
  4  1  1  0  0  0  0
  6  2  1  0  0  0  0
  6  9  1  0  0  0  0
  6 10  1  0  0  0  0
  7  2  1  0  0  0  0
  9 13  1  0  0  0  0
  9 12  1  0  0  0  0
 11  6  1  0  0  0  0
 14  9  1  0  0  0  0
M  END
$$$$
