butane_opt
 OpenBabel08242015423D

 14 13  0  0  0  0  0  0  0  0999 V2000
   -3.9092    0.2432   -0.0052 C   0  0  0  0  0  0  0  0  0  0  0  0
   -2.7236   -0.5855    0.0931 C   0  0  0  0  0  0  0  0  0  0  0  0
   -4.7846   -0.3299   -0.0606 H   0  0  0  0  0  0  0  0  0  0  0  0
   -3.8704    0.9055   -0.9583 H   0  0  0  0  0  0  0  0  0  0  0  0
   -4.0305    0.8484    0.7805 H   0  0  0  0  0  0  0  0  0  0  0  0
   -1.4168    0.2066    0.0169 C   0  0  0  0  0  0  0  0  0  0  0  0
   -2.6976   -1.2074   -0.7196 H   0  0  0  0  0  0  0  0  0  0  0  0
   -2.7727   -1.3557    1.0947 H   0  0  0  0  0  0  0  0  0  0  0  0
   -0.1575   -0.7129   -0.0042 C   0  0  0  0  0  0  0  0  0  0  0  0
   -1.4025    0.9238    0.9517 H   0  0  0  0  0  0  0  0  0  0  0  0
   -1.4203    0.7681   -0.8272 H   0  0  0  0  0  0  0  0  0  0  0  0
   -0.2004   -1.1526    0.7896 H   0  0  0  0  0  0  0  0  0  0  0  0
    0.7148   -0.1564    0.1874 H   0  0  0  0  0  0  0  0  0  0  0  0
   -0.0668   -1.5383   -1.0336 H   0  0  0  0  0  0  0  0  0  0  0  0
  1  2  1  0  0  0  0
  1  5  1  0  0  0  0
  2  8  1  0  0  0  0
  3  1  1  0  0  0  0
  4  1  1  0  0  0  0
  6  2  1  0  0  0  0
  6 10  1  0  0  0  0
  7  2  1  0  0  0  0
  9  6  1  0  0  0  0
  9 13  1  0  0  0  0
  9 12  1  0  0  0  0
 11  6  1  0  0  0  0
 14  9  1  0  0  0  0
M  END
$$$$
