butane_opt
 OpenBabel08242015423D

 14 13  0  0  0  0  0  0  0  0999 V2000
   -3.9132    0.2339    0.0033 C   0  0  0  0  0  0  0  0  0  0  0  0
   -2.6975   -0.5900    0.0203 C   0  0  0  0  0  0  0  0  0  0  0  0
   -4.8171   -0.3321    0.3004 H   0  0  0  0  0  0  0  0  0  0  0  0
   -4.0418    1.0081   -0.9810 H   0  0  0  0  0  0  0  0  0  0  0  0
   -3.8403    0.7318    0.8168 H   0  0  0  0  0  0  0  0  0  0  0  0
   -1.4232    0.2166    0.0310 C   0  0  0  0  0  0  0  0  0  0  0  0
   -2.7184   -1.1891   -0.7687 H   0  0  0  0  0  0  0  0  0  0  0  0
   -2.6799   -1.2905    0.9188 H   0  0  0  0  0  0  0  0  0  0  0  0
   -0.1820   -0.7129    0.0226 C   0  0  0  0  0  0  0  0  0  0  0  0
   -1.4968    0.9286    0.8986 H   0  0  0  0  0  0  0  0  0  0  0  0
   -1.4084    0.7966   -0.8144 H   0  0  0  0  0  0  0  0  0  0  0  0
   -0.1006   -1.2798    0.8688 H   0  0  0  0  0  0  0  0  0  0  0  0
    0.7786   -0.1121    0.1378 H   0  0  0  0  0  0  0  0  0  0  0  0
   -0.1091   -1.4939   -0.8894 H   0  0  0  0  0  0  0  0  0  0  0  0
  1  2  1  0  0  0  0
  1  3  1  0  0  0  0
  1  5  1  0  0  0  0
  2  6  1  0  0  0  0
  2  8  1  0  0  0  0
  4  1  1  0  0  0  0
  6 10  1  0  0  0  0
  7  2  1  0  0  0  0
  9  6  1  0  0  0  0
  9 13  1  0  0  0  0
  9 12  1  0  0  0  0
 11  6  1  0  0  0  0
 14  9  1  0  0  0  0
M  END
$$$$
