butane_opt
 OpenBabel08242015423D

 14 13  0  0  0  0  0  0  0  0999 V2000
   -3.9716    0.2652   -0.0364 C   0  0  0  0  0  0  0  0  0  0  0  0
   -2.6967   -0.6192    0.0746 C   0  0  0  0  0  0  0  0  0  0  0  0
   -4.8349   -0.2966    0.1596 H   0  0  0  0  0  0  0  0  0  0  0  0
   -4.1162    1.0865   -1.0272 H   0  0  0  0  0  0  0  0  0  0  0  0
   -3.9372    0.7534    0.6644 H   0  0  0  0  0  0  0  0  0  0  0  0
   -1.3856    0.1623    0.1017 C   0  0  0  0  0  0  0  0  0  0  0  0
   -2.6687   -1.2856   -0.7300 H   0  0  0  0  0  0  0  0  0  0  0  0
   -2.7462   -1.2051    0.9346 H   0  0  0  0  0  0  0  0  0  0  0  0
   -0.1521   -0.6866   -0.0228 C   0  0  0  0  0  0  0  0  0  0  0  0
   -1.3671    0.8620    0.9666 H   0  0  0  0  0  0  0  0  0  0  0  0
   -1.4573    0.8326   -0.8055 H   0  0  0  0  0  0  0  0  0  0  0  0
   -0.0561   -1.2358    0.7895 H   0  0  0  0  0  0  0  0  0  0  0  0
    0.8044   -0.0693   -0.0211 H   0  0  0  0  0  0  0  0  0  0  0  0
   -0.1809   -1.3650   -0.9217 H   0  0  0  0  0  0  0  0  0  0  0  0
  1  2  1  0  0  0  0
  1  3  1  0  0  0  0
  1  5  1  0  0  0  0
  2  6  1  0  0  0  0
  2  8  1  0  0  0  0
  4  1  1  0  0  0  0
  6 10  1  0  0  0  0
  7  2  1  0  0  0  0
  9 13  1  0  0  0  0
  9  6  1  0  0  0  0
  9 12  1  0  0  0  0
 11  6  1  0  0  0  0
 14  9  1  0  0  0  0
M  END
$$$$
