14
butane_opt
C  -3.909225   0.243164  -0.005176
C  -2.723555  -0.585473   0.093147
H  -4.784617  -0.329867  -0.060602
H  -3.870377   0.905537  -0.958259
H  -4.030531   0.848408   0.780507
C  -1.416769   0.206565   0.016917
H  -2.697595  -1.207441  -0.719584
H  -2.772682  -1.355745   1.094731
C  -0.157501  -0.712929  -0.004216
H  -1.402488   0.923798   0.951693
H  -1.420327   0.768117  -0.827209
H  -0.200354  -1.152641   0.789627
H   0.714756  -0.156443   0.187405
H  -0.066836  -1.538271  -1.033568
