butane_opt
 OpenBabel08242015423D

 14 13  0  0  0  0  0  0  0  0999 V2000
   -3.9354    0.2489   -0.0480 C   0  0  0  0  0  0  0  0  0  0  0  0
   -2.6977   -0.5995    0.0837 C   0  0  0  0  0  0  0  0  0  0  0  0
   -4.8885   -0.4146   -0.0449 H   0  0  0  0  0  0  0  0  0  0  0  0
   -3.9628    0.8279   -0.9416 H   0  0  0  0  0  0  0  0  0  0  0  0
   -4.0216    0.9467    0.8367 H   0  0  0  0  0  0  0  0  0  0  0  0
   -1.4028    0.2165    0.0933 C   0  0  0  0  0  0  0  0  0  0  0  0
   -2.6619   -1.2402   -0.7066 H   0  0  0  0  0  0  0  0  0  0  0  0
   -2.7749   -1.2770    1.0541 H   0  0  0  0  0  0  0  0  0  0  0  0
   -0.1583   -0.7067   -0.0372 C   0  0  0  0  0  0  0  0  0  0  0  0
   -1.3776    0.8841    0.9574 H   0  0  0  0  0  0  0  0  0  0  0  0
   -1.5050    0.7743   -0.7489 H   0  0  0  0  0  0  0  0  0  0  0  0
    0.0375   -1.4337    0.9406 H   0  0  0  0  0  0  0  0  0  0  0  0
    0.7039   -0.1502   -0.1451 H   0  0  0  0  0  0  0  0  0  0  0  0
   -0.2261   -1.3033   -0.8466 H   0  0  0  0  0  0  0  0  0  0  0  0
  1  3  1  0  0  0  0
  1  2  1  0  0  0  0
  1  5  1  0  0  0  0
  2  6  1  0  0  0  0
  2  8  1  0  0  0  0
  4  1  1  0  0  0  0
  6 10  1  0  0  0  0
  7  2  1  0  0  0  0
  9  6  1  0  0  0  0
  9 12  1  0  0  0  0
 11  6  1  0  0  0  0
 13  9  1  0  0  0  0
 14  9  1  0  0  0  0
M  END
$$$$
