14
butane_opt
C  -3.932623   0.257726  -0.026824
C  -2.703020  -0.591803   0.081246
H  -4.859950  -0.353841   0.083780
H  -3.924941   0.945123  -0.995862
H  -3.921681   0.811863   0.786051
C  -1.405246   0.189229   0.044537
H  -2.714076  -1.176722  -0.704034
H  -2.678414  -1.409610   1.102775
C  -0.175688  -0.698262  -0.015942
H  -1.404927   0.862667   0.958688
H  -1.384103   0.772067  -0.820183
H  -0.122985  -1.090246   0.757086
H   0.691507  -0.153928   0.228270
H  -0.103626  -1.560162  -0.990169
