14
butane_opt
C  -3.934174   0.267563   0.010654
C  -2.684115  -0.634760   0.010204
H  -4.817577  -0.249536   0.269625
H  -4.128170   1.062488  -0.995515
H  -3.860181   0.831921   0.769950
C  -1.414978   0.166700   0.045203
H  -2.629250  -1.261558  -0.775433
H  -2.709666  -1.250224   0.876782
C  -0.187795  -0.680329   0.030061
H  -1.331835   0.847082   0.931675
H  -1.401869   0.784032  -0.826338
H  -0.152284  -1.269091   0.922481
H   0.806991  -0.020472  -0.034271
H  -0.161466  -1.361358  -0.869101
