butane_opt
 OpenBabel08242015423D

 14 13  0  0  0  0  0  0  0  0999 V2000
   -3.9304    0.2478    0.0450 C   0  0  0  0  0  0  0  0  0  0  0  0
   -2.6939   -0.6022   -0.0020 C   0  0  0  0  0  0  0  0  0  0  0  0
   -4.8881   -0.4079   -0.0144 H   0  0  0  0  0  0  0  0  0  0  0  0
   -3.8905    0.7615   -0.7883 H   0  0  0  0  0  0  0  0  0  0  0  0
   -3.8935    1.0088    0.9723 H   0  0  0  0  0  0  0  0  0  0  0  0
   -1.4162    0.2207   -0.0092 C   0  0  0  0  0  0  0  0  0  0  0  0
   -2.6985   -1.3246   -0.9107 H   0  0  0  0  0  0  0  0  0  0  0  0
   -2.7457   -1.1522    0.8750 H   0  0  0  0  0  0  0  0  0  0  0  0
   -0.1698   -0.7062    0.0679 C   0  0  0  0  0  0  0  0  0  0  0  0
   -1.4864    0.8243    0.8132 H   0  0  0  0  0  0  0  0  0  0  0  0
   -1.3942    0.8428   -0.8727 H   0  0  0  0  0  0  0  0  0  0  0  0
    0.0518   -1.5300    1.0654 H   0  0  0  0  0  0  0  0  0  0  0  0
    0.7188   -0.1804   -0.2024 H   0  0  0  0  0  0  0  0  0  0  0  0
   -0.2670   -1.2356   -0.6851 H   0  0  0  0  0  0  0  0  0  0  0  0
  1  5  1  0  0  0  0
  2  1  1  0  0  0  0
  2  8  1  0  0  0  0
  3  1  1  0  0  0  0
  4  1  1  0  0  0  0
  6  2  1  0  0  0  0
  6  9  1  0  0  0  0
  6 10  1  0  0  0  0
  7  2  1  0  0  0  0
  9 12  1  0  0  0  0
 11  6  1  0  0  0  0
 13  9  1  0  0  0  0
 14  9  1  0  0  0  0
M  END
$$$$
