14
butane_opt
C  -3.971390   0.293069   0.045478
C  -2.700102  -0.642490   0.008336
H  -4.878065  -0.303095   0.043763
H  -3.940297   0.858825  -0.821129
H  -4.066225   1.000445   0.917230
C  -1.388646   0.169217  -0.002005
H  -2.703667  -1.440709  -0.934835
H  -2.675662  -1.213387   0.895458
C  -0.154424  -0.672548   0.047512
H  -1.262289   0.801992   0.817219
H  -1.339379   0.827830  -0.933641
H  -0.171026  -1.420643   1.043497
H   0.767859  -0.086256  -0.056911
H  -0.179824  -1.255737  -0.693846
