butane_opt
 OpenBabel08242015423D

 14 13  0  0  0  0  0  0  0  0999 V2000
   -3.9714    0.2931    0.0455 C   0  0  0  0  0  0  0  0  0  0  0  0
   -2.7001   -0.6425    0.0083 C   0  0  0  0  0  0  0  0  0  0  0  0
   -4.8781   -0.3031    0.0438 H   0  0  0  0  0  0  0  0  0  0  0  0
   -3.9403    0.8588   -0.8211 H   0  0  0  0  0  0  0  0  0  0  0  0
   -4.0662    1.0004    0.9172 H   0  0  0  0  0  0  0  0  0  0  0  0
   -1.3886    0.1692   -0.0020 C   0  0  0  0  0  0  0  0  0  0  0  0
   -2.7037   -1.4407   -0.9348 H   0  0  0  0  0  0  0  0  0  0  0  0
   -2.6757   -1.2134    0.8955 H   0  0  0  0  0  0  0  0  0  0  0  0
   -0.1544   -0.6725    0.0475 C   0  0  0  0  0  0  0  0  0  0  0  0
   -1.2623    0.8020    0.8172 H   0  0  0  0  0  0  0  0  0  0  0  0
   -1.3394    0.8278   -0.9336 H   0  0  0  0  0  0  0  0  0  0  0  0
   -0.1710   -1.4206    1.0435 H   0  0  0  0  0  0  0  0  0  0  0  0
    0.7679   -0.0863   -0.0569 H   0  0  0  0  0  0  0  0  0  0  0  0
   -0.1798   -1.2557   -0.6938 H   0  0  0  0  0  0  0  0  0  0  0  0
  1  5  1  0  0  0  0
  2  1  1  0  0  0  0
  2  8  1  0  0  0  0
  3  1  1  0  0  0  0
  4  1  1  0  0  0  0
  6  2  1  0  0  0  0
  6  9  1  0  0  0  0
  6 10  1  0  0  0  0
  7  2  1  0  0  0  0
  9 12  1  0  0  0  0
 11  6  1  0  0  0  0
 13  9  1  0  0  0  0
 14  9  1  0  0  0  0
M  END
$$$$
