butane_opt
 OpenBabel08242015423D

 14 13  0  0  0  0  0  0  0  0999 V2000
   -3.9326    0.2577   -0.0268 C   0  0  0  0  0  0  0  0  0  0  0  0
   -2.7030   -0.5918    0.0812 C   0  0  0  0  0  0  0  0  0  0  0  0
   -4.8600   -0.3538    0.0838 H   0  0  0  0  0  0  0  0  0  0  0  0
   -3.9249    0.9451   -0.9959 H   0  0  0  0  0  0  0  0  0  0  0  0
   -3.9217    0.8119    0.7861 H   0  0  0  0  0  0  0  0  0  0  0  0
   -1.4052    0.1892    0.0445 C   0  0  0  0  0  0  0  0  0  0  0  0
   -2.7141   -1.1767   -0.7040 H   0  0  0  0  0  0  0  0  0  0  0  0
   -2.6784   -1.4096    1.1028 H   0  0  0  0  0  0  0  0  0  0  0  0
   -0.1757   -0.6983   -0.0159 C   0  0  0  0  0  0  0  0  0  0  0  0
   -1.4049    0.8627    0.9587 H   0  0  0  0  0  0  0  0  0  0  0  0
   -1.3841    0.7721   -0.8202 H   0  0  0  0  0  0  0  0  0  0  0  0
   -0.1230   -1.0902    0.7571 H   0  0  0  0  0  0  0  0  0  0  0  0
    0.6915   -0.1539    0.2283 H   0  0  0  0  0  0  0  0  0  0  0  0
   -0.1036   -1.5602   -0.9902 H   0  0  0  0  0  0  0  0  0  0  0  0
  1  2  1  0  0  0  0
  1  3  1  0  0  0  0
  1  5  1  0  0  0  0
  2  8  1  0  0  0  0
  4  1  1  0  0  0  0
  6  2  1  0  0  0  0
  6 10  1  0  0  0  0
  7  2  1  0  0  0  0
  9  6  1  0  0  0  0
  9 13  1  0  0  0  0
  9 12  1  0  0  0  0
 11  6  1  0  0  0  0
 14  9  1  0  0  0  0
M  END
$$$$
