14
butane_opt
C  -3.935399   0.248890  -0.047982
C  -2.697715  -0.599532   0.083685
H  -4.888508  -0.414551  -0.044911
H  -3.962790   0.827855  -0.941619
H  -4.021578   0.946740   0.836703
C  -1.402794   0.216506   0.093294
H  -2.661911  -1.240165  -0.706612
H  -2.774936  -1.276996   1.054106
C  -0.158296  -0.706691  -0.037150
H  -1.377575   0.884076   0.957445
H  -1.505020   0.774299  -0.748891
H   0.037500  -1.433674   0.940640
H   0.703946  -0.150207  -0.145096
H  -0.226094  -1.303281  -0.846597
