butane_opt
 OpenBabel08242015423D

 14 13  0  0  0  0  0  0  0  0999 V2000
   -3.9505    0.2733    0.0300 C   0  0  0  0  0  0  0  0  0  0  0  0
   -2.6898   -0.6363    0.0291 C   0  0  0  0  0  0  0  0  0  0  0  0
   -4.8279   -0.2972   -0.0269 H   0  0  0  0  0  0  0  0  0  0  0  0
   -3.9234    0.8264   -0.8208 H   0  0  0  0  0  0  0  0  0  0  0  0
   -3.9939    1.0278    0.9454 H   0  0  0  0  0  0  0  0  0  0  0  0
   -1.4011    0.1823   -0.0009 C   0  0  0  0  0  0  0  0  0  0  0  0
   -2.7110   -1.2861   -0.8134 H   0  0  0  0  0  0  0  0  0  0  0  0
   -2.6755   -1.2403    0.8985 H   0  0  0  0  0  0  0  0  0  0  0  0
   -0.1775   -0.6897    0.0494 C   0  0  0  0  0  0  0  0  0  0  0  0
   -1.3463    0.8133    0.7850 H   0  0  0  0  0  0  0  0  0  0  0  0
   -1.3387    0.8607   -0.9340 H   0  0  0  0  0  0  0  0  0  0  0  0
   -0.1391   -1.3224    0.9517 H   0  0  0  0  0  0  0  0  0  0  0  0
    0.7453   -0.0663    0.0119 H   0  0  0  0  0  0  0  0  0  0  0  0
   -0.1892   -1.3453   -0.8344 H   0  0  0  0  0  0  0  0  0  0  0  0
  1  5  1  0  0  0  0
  2  1  1  0  0  0  0
  2  8  1  0  0  0  0
  3  1  1  0  0  0  0
  4  1  1  0  0  0  0
  6  2  1  0  0  0  0
  6  9  1  0  0  0  0
  6 10  1  0  0  0  0
  7  2  1  0  0  0  0
  9 12  1  0  0  0  0
 11  6  1  0  0  0  0
 13  9  1  0  0  0  0
 14  9  1  0  0  0  0
M  END
$$$$
