14
butane_opt
C  -3.951572   0.271277   0.042426
C  -2.707364  -0.625897   0.001642
H  -4.856117  -0.301963   0.022054
H  -4.032373   0.873814  -0.824701
H  -3.944067   0.999968   0.917721
C  -1.390017   0.176670   0.005323
H  -2.760299  -1.343036  -0.885889
H  -2.692703  -1.250859   0.856145
C  -0.157325  -0.693976   0.055368
H  -1.430185   0.851955   0.840421
H  -1.364780   0.851922  -0.919986
H  -0.076045  -1.399698   1.006045
H   0.782247  -0.077153  -0.106986
H  -0.179957  -1.204644  -0.710656
