butane_opt
 OpenBabel08242015423D

 14 13  0  0  0  0  0  0  0  0999 V2000
   -3.9415    0.2701    0.0391 C   0  0  0  0  0  0  0  0  0  0  0  0
   -2.6961   -0.6274    0.0001 C   0  0  0  0  0  0  0  0  0  0  0  0
   -4.8395   -0.3015    0.2209 H   0  0  0  0  0  0  0  0  0  0  0  0
   -4.1091    0.9431   -0.8838 H   0  0  0  0  0  0  0  0  0  0  0  0
   -3.9284    0.8980    0.8831 H   0  0  0  0  0  0  0  0  0  0  0  0
   -1.4041    0.1786   -0.0056 C   0  0  0  0  0  0  0  0  0  0  0  0
   -2.7446   -1.3642   -0.9148 H   0  0  0  0  0  0  0  0  0  0  0  0
   -2.7311   -1.2204    0.8481 H   0  0  0  0  0  0  0  0  0  0  0  0
   -0.1527   -0.6872    0.0617 C   0  0  0  0  0  0  0  0  0  0  0  0
   -1.3943    0.8261    0.8475 H   0  0  0  0  0  0  0  0  0  0  0  0
   -1.3978    0.8439   -0.9391 H   0  0  0  0  0  0  0  0  0  0  0  0
   -0.1254   -1.2885    0.9718 H   0  0  0  0  0  0  0  0  0  0  0  0
    0.7272   -0.0935    0.0391 H   0  0  0  0  0  0  0  0  0  0  0  0
   -0.1465   -1.3197   -0.7724 H   0  0  0  0  0  0  0  0  0  0  0  0
  1  3  1  0  0  0  0
  1  5  1  0  0  0  0
  2  1  1  0  0  0  0
  2  8  1  0  0  0  0
  4  1  1  0  0  0  0
  6  2  1  0  0  0  0
  6  9  1  0  0  0  0
  6 10  1  0  0  0  0
  7  2  1  0  0  0  0
  9 12  1  0  0  0  0
 11  6  1  0  0  0  0
 13  9  1  0  0  0  0
 14  9  1  0  0  0  0
M  END
$$$$
