14
butane_opt
C  -3.933638   0.229027   0.070709
C  -2.721900  -0.570280  -0.023934
H  -4.839502  -0.379628   0.214488
H  -4.025027   1.039344  -0.924542
H  -3.788194   0.817575   0.860277
C  -1.406829   0.195072  -0.020046
H  -2.745255  -1.304685  -0.919058
H  -2.697550  -1.134953   0.815273
C  -0.154495  -0.724237   0.082833
H  -1.457443   0.832025   0.811905
H  -1.355075   0.930053  -0.953949
H  -0.169131  -1.311387   0.952092
H   0.770781  -0.087040   0.084313
H  -0.104615  -1.435005  -0.839008
