butane_opt
 OpenBabel08242015423D

 14 13  0  0  0  0  0  0  0  0999 V2000
   -3.9352    0.2513    0.0686 C   0  0  0  0  0  0  0  0  0  0  0  0
   -2.7035   -0.5888    0.0114 C   0  0  0  0  0  0  0  0  0  0  0  0
   -4.9166   -0.4039   -0.1889 H   0  0  0  0  0  0  0  0  0  0  0  0
   -3.8607    0.6306   -0.6969 H   0  0  0  0  0  0  0  0  0  0  0  0
   -3.9064    1.0544    1.0231 H   0  0  0  0  0  0  0  0  0  0  0  0
   -1.4026    0.1972   -0.0517 C   0  0  0  0  0  0  0  0  0  0  0  0
   -2.7263   -1.2025   -0.8446 H   0  0  0  0  0  0  0  0  0  0  0  0
   -2.6800   -1.1875    0.8601 H   0  0  0  0  0  0  0  0  0  0  0  0
   -0.1609   -0.7103    0.0711 C   0  0  0  0  0  0  0  0  0  0  0  0
   -1.4076    0.8200    0.7664 H   0  0  0  0  0  0  0  0  0  0  0  0
   -1.4688    0.9070   -1.0068 H   0  0  0  0  0  0  0  0  0  0  0  0
   -0.2288   -1.4062    1.0101 H   0  0  0  0  0  0  0  0  0  0  0  0
    0.7052   -0.1753    0.0704 H   0  0  0  0  0  0  0  0  0  0  0  0
   -0.0947   -1.3259   -0.7171 H   0  0  0  0  0  0  0  0  0  0  0  0
  1  5  1  0  0  0  0
  2  1  1  0  0  0  0
  2  8  1  0  0  0  0
  3  1  1  0  0  0  0
  4  1  1  0  0  0  0
  6  2  1  0  0  0  0
  6  9  1  0  0  0  0
  6 10  1  0  0  0  0
  7  2  1  0  0  0  0
  9 12  1  0  0  0  0
 11  6  1  0  0  0  0
 13  9  1  0  0  0  0
 14  9  1  0  0  0  0
M  END
$$$$
