14
butane_opt
C  -3.972116   0.256936  -0.029729
C  -2.698575  -0.609316   0.077682
H  -4.892730  -0.329648  -0.029986
H  -3.942799   0.877404  -0.938429
H  -3.926925   0.902220   0.827182
C  -1.408242   0.180014   0.062091
H  -2.682945  -1.172543  -0.708555
H  -2.787165  -1.240146   1.005175
C  -0.141612  -0.687044  -0.001937
H  -1.276742   0.930242   0.940342
H  -1.486874   0.741969  -0.798872
H  -0.032204  -1.341203   0.880050
H   0.764357  -0.141295  -0.123977
H  -0.123318  -1.390119  -0.909881
