14
butane_opt
C  -3.956442   0.259042  -0.004688
C  -2.721888  -0.605498   0.082478
H  -4.884293  -0.328706  -0.068466
H  -3.789918   0.836354  -0.862341
H  -3.985071   0.939782   0.878851
C  -1.406125   0.198825   0.018505
H  -2.685034  -1.322886  -0.730826
H  -2.804043  -1.222529   0.972756
C  -0.139802  -0.709990   0.012122
H  -1.315660   0.868936   0.872240
H  -1.416806   0.881570  -0.912403
H  -0.136929  -1.247604   0.835002
H   0.741897  -0.121108   0.044977
H  -0.066411  -1.468863  -0.890480
