14
butane_opt
C  -3.955959   0.249399  -0.049481
C  -2.709763  -0.613834   0.113102
H  -4.875544  -0.314473  -0.046126
H  -3.845689   0.862035  -0.956767
H  -4.059724   0.940183   0.848926
C  -1.401823   0.201912   0.055542
H  -2.672866  -1.247024  -0.666900
H  -2.791953  -1.317119   1.051568
C  -0.139685  -0.693659  -0.029966
H  -1.315786   0.973702   1.001078
H  -1.541336   0.780068  -0.758561
H  -0.028041  -1.278533   0.839432
H   0.650407  -0.202120  -0.011482
H  -0.058544  -1.403819  -0.924878
