14
butane_opt
C  -3.963995   0.276934   0.058972
C  -2.693462  -0.645650  -0.019777
H  -4.766787  -0.225278   0.051368
H  -4.023177   0.889669  -0.814740
H  -4.019808   1.017015   0.942094
C  -1.400342   0.165735  -0.016710
H  -2.812697  -1.383858  -0.930997
H  -2.695214  -1.251102   0.901190
C  -0.148579  -0.666697   0.061112
H  -1.452093   0.920442   0.875273
H  -1.302216   0.733443  -0.872281
H  -0.087128  -1.523512   1.068181
H   0.768947  -0.092807  -0.121630
H  -0.172301  -1.095883  -0.640443
