butane_opt
 OpenBabel08242015423D

 14 13  0  0  0  0  0  0  0  0999 V2000
   -3.9657    0.2808   -0.0175 C   0  0  0  0  0  0  0  0  0  0  0  0
   -2.7036   -0.6372    0.0662 C   0  0  0  0  0  0  0  0  0  0  0  0
   -4.8311   -0.2706    0.2314 H   0  0  0  0  0  0  0  0  0  0  0  0
   -4.0676    1.2029   -1.1065 H   0  0  0  0  0  0  0  0  0  0  0  0
   -3.9633    0.6052    0.6688 H   0  0  0  0  0  0  0  0  0  0  0  0
   -1.3987    0.1566    0.0735 C   0  0  0  0  0  0  0  0  0  0  0  0
   -2.6563   -1.2972   -0.7950 H   0  0  0  0  0  0  0  0  0  0  0  0
   -2.6284   -1.2410    0.9324 H   0  0  0  0  0  0  0  0  0  0  0  0
   -0.1452   -0.6669   -0.0154 C   0  0  0  0  0  0  0  0  0  0  0  0
   -1.3771    0.9314    1.0015 H   0  0  0  0  0  0  0  0  0  0  0  0
   -1.3572    0.7229   -0.7560 H   0  0  0  0  0  0  0  0  0  0  0  0
   -0.1402   -1.1918    0.8241 H   0  0  0  0  0  0  0  0  0  0  0  0
    0.7469   -0.0997    0.0548 H   0  0  0  0  0  0  0  0  0  0  0  0
   -0.1931   -1.4280   -0.9474 H   0  0  0  0  0  0  0  0  0  0  0  0
  1  2  1  0  0  0  0
  1  3  1  0  0  0  0
  1  5  1  0  0  0  0
  2  6  1  0  0  0  0
  2  8  1  0  0  0  0
  4  1  1  0  0  0  0
  6 10  1  0  0  0  0
  7  2  1  0  0  0  0
  9 13  1  0  0  0  0
  9  6  1  0  0  0  0
  9 12  1  0  0  0  0
 11  6  1  0  0  0  0
 14  9  1  0  0  0  0
M  END
$$$$
