14
butane_opt
C  -3.940766   0.245110   0.073831
C  -2.711717  -0.594745  -0.046483
H  -4.855374  -0.351437   0.326087
H  -4.047021   1.031499  -0.888279
H  -3.752276   0.818727   0.920223
C  -1.406610   0.196360  -0.034432
H  -2.734258  -1.321488  -0.923971
H  -2.672052  -1.151755   0.745065
C  -0.157015  -0.716991   0.100458
H  -1.505151   0.880400   0.812699
H  -1.308534   0.849969  -0.951072
H  -0.202074  -1.333954   0.999738
H   0.782546  -0.061621  -0.007736
H  -0.133407  -1.382293  -0.734762
