14
butane_opt
C  -3.959650   0.281527   0.059990
C  -2.690678  -0.619547  -0.031816
H  -4.813836  -0.278655   0.272019
H  -4.121803   0.903625  -0.806239
H  -3.796900   0.889209   0.899100
C  -1.374003   0.155777  -0.033501
H  -2.704304  -1.362612  -0.932278
H  -2.676560  -1.181682   0.809997
C  -0.188266  -0.673889   0.081586
H  -1.463853   0.810402   0.847286
H  -1.303379   0.777254  -0.909375
H  -0.242359  -1.373192   1.061620
H   0.755382  -0.098637  -0.009022
H  -0.119847  -1.265250  -0.713899
