14
butane_opt
C  -3.957436   0.241092   0.029315
C  -2.706901  -0.588743   0.014218
H  -4.860443  -0.337034   0.010969
H  -3.914601   0.798813  -0.850355
H  -3.954197   0.946998   0.971734
C  -1.395328   0.212271   0.007097
H  -2.745680  -1.359292  -0.888253
H  -2.816731  -1.175124   0.848678
C  -0.151727  -0.718139   0.048286
H  -1.339224   1.006193   0.918744
H  -1.382003   0.795606  -0.864248
H   0.003730  -1.543466   1.088691
H   0.660000  -0.218752  -0.300557
H  -0.128805  -1.144769  -0.650886
