butane_opt
 OpenBabel08242015423D

 14 13  0  0  0  0  0  0  0  0999 V2000
   -3.9574    0.2411    0.0293 C   0  0  0  0  0  0  0  0  0  0  0  0
   -2.7069   -0.5887    0.0142 C   0  0  0  0  0  0  0  0  0  0  0  0
   -4.8604   -0.3370    0.0110 H   0  0  0  0  0  0  0  0  0  0  0  0
   -3.9146    0.7988   -0.8504 H   0  0  0  0  0  0  0  0  0  0  0  0
   -3.9542    0.9470    0.9717 H   0  0  0  0  0  0  0  0  0  0  0  0
   -1.3953    0.2123    0.0071 C   0  0  0  0  0  0  0  0  0  0  0  0
   -2.7457   -1.3593   -0.8883 H   0  0  0  0  0  0  0  0  0  0  0  0
   -2.8167   -1.1751    0.8487 H   0  0  0  0  0  0  0  0  0  0  0  0
   -0.1517   -0.7181    0.0483 C   0  0  0  0  0  0  0  0  0  0  0  0
   -1.3392    1.0062    0.9187 H   0  0  0  0  0  0  0  0  0  0  0  0
   -1.3820    0.7956   -0.8642 H   0  0  0  0  0  0  0  0  0  0  0  0
    0.0037   -1.5435    1.0887 H   0  0  0  0  0  0  0  0  0  0  0  0
    0.6600   -0.2188   -0.3006 H   0  0  0  0  0  0  0  0  0  0  0  0
   -0.1288   -1.1448   -0.6509 H   0  0  0  0  0  0  0  0  0  0  0  0
  1  5  1  0  0  0  0
  2  1  1  0  0  0  0
  2  8  1  0  0  0  0
  3  1  1  0  0  0  0
  4  1  1  0  0  0  0
  6  2  1  0  0  0  0
  6  9  1  0  0  0  0
  6 10  1  0  0  0  0
  7  2  1  0  0  0  0
  9 12  1  0  0  0  0
 11  6  1  0  0  0  0
 13  9  1  0  0  0  0
 14  9  1  0  0  0  0
M  END
$$$$
