butane_opt
 OpenBabel08242015423D

 14 13  0  0  0  0  0  0  0  0999 V2000
   -3.9493    0.2786   -0.0280 C   0  0  0  0  0  0  0  0  0  0  0  0
   -2.6823   -0.6423    0.0922 C   0  0  0  0  0  0  0  0  0  0  0  0
   -4.8324   -0.2606   -0.1830 H   0  0  0  0  0  0  0  0  0  0  0  0
   -3.8922    0.8556   -0.8812 H   0  0  0  0  0  0  0  0  0  0  0  0
   -3.9917    1.0614    0.9010 H   0  0  0  0  0  0  0  0  0  0  0  0
   -1.4213    0.1505    0.0437 C   0  0  0  0  0  0  0  0  0  0  0  0
   -2.6792   -1.1889   -0.6809 H   0  0  0  0  0  0  0  0  0  0  0  0
   -2.7081   -1.3711    1.0822 H   0  0  0  0  0  0  0  0  0  0  0  0
   -0.1637   -0.6722   -0.0150 C   0  0  0  0  0  0  0  0  0  0  0  0
   -1.3544    0.8625    0.9654 H   0  0  0  0  0  0  0  0  0  0  0  0
   -1.4341    0.8133   -0.8373 H   0  0  0  0  0  0  0  0  0  0  0  0
   -0.1934   -1.2214    0.8776 H   0  0  0  0  0  0  0  0  0  0  0  0
    0.8393   -0.0039    0.0006 H   0  0  0  0  0  0  0  0  0  0  0  0
   -0.2001   -1.3898   -0.9306 H   0  0  0  0  0  0  0  0  0  0  0  0
  1  2  1  0  0  0  0
  1  5  1  0  0  0  0
  2  8  1  0  0  0  0
  3  1  1  0  0  0  0
  4  1  1  0  0  0  0
  6  2  1  0  0  0  0
  6 10  1  0  0  0  0
  7  2  1  0  0  0  0
  9 13  1  0  0  0  0
  9  6  1  0  0  0  0
  9 12  1  0  0  0  0
 11  6  1  0  0  0  0
 14  9  1  0  0  0  0
M  END
$$$$
