14
butane_opt
C  -3.961788   0.260928   0.059702
C  -2.693566  -0.626162  -0.012217
H  -4.844612  -0.316169   0.226984
H  -4.151802   1.056188  -0.910544
H  -3.863655   0.866123   0.880938
C  -1.394005   0.179879  -0.021027
H  -2.746454  -1.379035  -0.947018
H  -2.670809  -1.187270   0.817881
C  -0.157633  -0.692890   0.061090
H  -1.476315   0.920377   0.886531
H  -1.379807   0.805322  -0.943416
H  -0.215072  -1.355963   1.004380
H   0.844795  -0.060271   0.089120
H  -0.042042  -1.264918  -0.728052
