butane_opt
 OpenBabel08242015423D

 14 13  0  0  0  0  0  0  0  0999 V2000
   -3.9738    0.2735   -0.0186 C   0  0  0  0  0  0  0  0  0  0  0  0
   -2.7094   -0.6187    0.0831 C   0  0  0  0  0  0  0  0  0  0  0  0
   -4.8765   -0.2501   -0.1950 H   0  0  0  0  0  0  0  0  0  0  0  0
   -3.9510    0.7650   -0.8568 H   0  0  0  0  0  0  0  0  0  0  0  0
   -4.0116    1.0769    0.9360 H   0  0  0  0  0  0  0  0  0  0  0  0
   -1.3734    0.1665    0.0453 C   0  0  0  0  0  0  0  0  0  0  0  0
   -2.5964   -1.2346   -0.6989 H   0  0  0  0  0  0  0  0  0  0  0  0
   -2.7360   -1.3413    1.0353 H   0  0  0  0  0  0  0  0  0  0  0  0
   -0.1617   -0.6853   -0.0085 C   0  0  0  0  0  0  0  0  0  0  0  0
   -1.3243    0.8476    0.8504 H   0  0  0  0  0  0  0  0  0  0  0  0
   -1.3482    0.7391   -0.8209 H   0  0  0  0  0  0  0  0  0  0  0  0
   -0.1261   -1.3373    0.8985 H   0  0  0  0  0  0  0  0  0  0  0  0
    0.7509   -0.0792   -0.0597 H   0  0  0  0  0  0  0  0  0  0  0  0
   -0.1841   -1.2872   -0.8507 H   0  0  0  0  0  0  0  0  0  0  0  0
  1  2  1  0  0  0  0
  1  5  1  0  0  0  0
  2  8  1  0  0  0  0
  3  1  1  0  0  0  0
  4  1  1  0  0  0  0
  6  2  1  0  0  0  0
  6 10  1  0  0  0  0
  7  2  1  0  0  0  0
  9  6  1  0  0  0  0
  9 12  1  0  0  0  0
 11  6  1  0  0  0  0
 13  9  1  0  0  0  0
 14  9  1  0  0  0  0
M  END
$$$$
