butane_opt
 OpenBabel08242015423D

 14 13  0  0  0  0  0  0  0  0999 V2000
   -3.9618    0.2609    0.0597 C   0  0  0  0  0  0  0  0  0  0  0  0
   -2.6936   -0.6262   -0.0122 C   0  0  0  0  0  0  0  0  0  0  0  0
   -4.8446   -0.3162    0.2270 H   0  0  0  0  0  0  0  0  0  0  0  0
   -4.1518    1.0562   -0.9105 H   0  0  0  0  0  0  0  0  0  0  0  0
   -3.8637    0.8661    0.8809 H   0  0  0  0  0  0  0  0  0  0  0  0
   -1.3940    0.1799   -0.0210 C   0  0  0  0  0  0  0  0  0  0  0  0
   -2.7465   -1.3790   -0.9470 H   0  0  0  0  0  0  0  0  0  0  0  0
   -2.6708   -1.1873    0.8179 H   0  0  0  0  0  0  0  0  0  0  0  0
   -0.1576   -0.6929    0.0611 C   0  0  0  0  0  0  0  0  0  0  0  0
   -1.4763    0.9204    0.8865 H   0  0  0  0  0  0  0  0  0  0  0  0
   -1.3798    0.8053   -0.9434 H   0  0  0  0  0  0  0  0  0  0  0  0
   -0.2151   -1.3560    1.0044 H   0  0  0  0  0  0  0  0  0  0  0  0
    0.8448   -0.0603    0.0891 H   0  0  0  0  0  0  0  0  0  0  0  0
   -0.0420   -1.2649   -0.7281 H   0  0  0  0  0  0  0  0  0  0  0  0
  1  3  1  0  0  0  0
  1  5  1  0  0  0  0
  2  1  1  0  0  0  0
  2  8  1  0  0  0  0
  4  1  1  0  0  0  0
  6  2  1  0  0  0  0
  6  9  1  0  0  0  0
  6 10  1  0  0  0  0
  7  2  1  0  0  0  0
  9 13  1  0  0  0  0
  9 12  1  0  0  0  0
 11  6  1  0  0  0  0
 14  9  1  0  0  0  0
M  END
$$$$
