14
butane_opt
C  -3.943719   0.258807   0.024323
C  -2.706315  -0.596215   0.021212
H  -4.940340  -0.381342   0.106606
H  -3.934450   0.805630  -0.829583
H  -3.903119   0.942573   0.886269
C  -1.393870   0.200318   0.005457
H  -2.737899  -1.364903  -0.883507
H  -2.670226  -1.119279   0.815802
C  -0.158813  -0.704693   0.047575
H  -1.381038   0.819881   0.851401
H  -1.422856   0.845907  -0.863733
H  -0.138903  -1.500882   1.071502
H   0.740455  -0.105363  -0.131172
H  -0.195910  -1.320530  -0.749212
