butane_opt
 OpenBabel08242015423D

 14 13  0  0  0  0  0  0  0  0999 V2000
   -3.9359    0.2658    0.0887 C   0  0  0  0  0  0  0  0  0  0  0  0
   -2.7137   -0.6189   -0.0336 C   0  0  0  0  0  0  0  0  0  0  0  0
   -4.8863   -0.3873    0.1306 H   0  0  0  0  0  0  0  0  0  0  0  0
   -4.0843    0.8986   -0.8426 H   0  0  0  0  0  0  0  0  0  0  0  0
   -3.9091    0.9125    0.8982 H   0  0  0  0  0  0  0  0  0  0  0  0
   -1.3978    0.1957   -0.0531 C   0  0  0  0  0  0  0  0  0  0  0  0
   -2.8139   -1.3194   -0.8907 H   0  0  0  0  0  0  0  0  0  0  0  0
   -2.6348   -1.1953    0.8293 H   0  0  0  0  0  0  0  0  0  0  0  0
   -0.1540   -0.6931    0.0854 C   0  0  0  0  0  0  0  0  0  0  0  0
   -1.4905    0.8723    0.8167 H   0  0  0  0  0  0  0  0  0  0  0  0
   -1.2988    0.8050   -0.9677 H   0  0  0  0  0  0  0  0  0  0  0  0
   -0.1764   -1.3543    0.9938 H   0  0  0  0  0  0  0  0  0  0  0  0
    0.6868   -0.1903    0.1100 H   0  0  0  0  0  0  0  0  0  0  0  0
    0.0094   -1.3123   -0.7007 H   0  0  0  0  0  0  0  0  0  0  0  0
  1  3  1  0  0  0  0
  1  5  1  0  0  0  0
  2  1  1  0  0  0  0
  2  8  1  0  0  0  0
  4  1  1  0  0  0  0
  6  2  1  0  0  0  0
  6  9  1  0  0  0  0
  6 10  1  0  0  0  0
  7  2  1  0  0  0  0
  9 13  1  0  0  0  0
  9 12  1  0  0  0  0
 11  6  1  0  0  0  0
 14  9  1  0  0  0  0
M  END
$$$$
