14
butane_opt
C  -3.908761   0.250807   0.043591
C  -2.718671  -0.584630   0.016995
H  -4.875494  -0.374286  -0.095512
H  -3.839796   0.582934  -0.646700
H  -3.930844   1.095592   1.025390
C  -1.431649   0.202787  -0.050310
H  -2.808265  -1.207413  -0.830700
H  -2.664584  -1.226815   0.950036
C  -0.148563  -0.715311   0.077537
H  -1.420123   0.838885   0.742554
H  -1.388618   0.839975  -0.985564
H  -0.199417  -1.390715   0.983725
H   0.739628  -0.121979   0.037827
H  -0.135048  -1.372509  -0.769024
