14
butane_opt
C  -3.926310   0.257943   0.002414
C  -2.717415  -0.595242   0.086676
H  -4.922301  -0.382508   0.024750
H  -3.917813   0.953637  -1.002180
H  -3.946964   0.826087   0.794899
C  -1.417597   0.194140   0.018570
H  -2.722023  -1.299480  -0.809308
H  -2.686407  -1.281259   0.975050
C  -0.147944  -0.705387   0.012372
H  -1.456574   0.879759   0.855290
H  -1.395535   0.839582  -0.857611
H  -0.158296  -1.156918   0.788129
H   0.806874  -0.106698   0.165664
H  -0.106866  -1.565292  -0.968473
