butane_opt
 OpenBabel08242015423D

 14 13  0  0  0  0  0  0  0  0999 V2000
   -3.9115    0.2899   -0.0131 C   0  0  0  0  0  0  0  0  0  0  0  0
   -2.6870   -0.6341    0.1005 C   0  0  0  0  0  0  0  0  0  0  0  0
   -4.8281   -0.2413   -0.1955 H   0  0  0  0  0  0  0  0  0  0  0  0
   -3.8625    0.7987   -0.8538 H   0  0  0  0  0  0  0  0  0  0  0  0
   -4.1519    1.0408    0.8870 H   0  0  0  0  0  0  0  0  0  0  0  0
   -1.4011    0.1536    0.0371 C   0  0  0  0  0  0  0  0  0  0  0  0
   -2.7630   -1.3357   -0.7699 H   0  0  0  0  0  0  0  0  0  0  0  0
   -2.7407   -1.3450    0.9934 H   0  0  0  0  0  0  0  0  0  0  0  0
   -0.1930   -0.6706    0.0039 C   0  0  0  0  0  0  0  0  0  0  0  0
   -1.3858    0.7760    0.8506 H   0  0  0  0  0  0  0  0  0  0  0  0
   -1.3933    0.8295   -0.8980 H   0  0  0  0  0  0  0  0  0  0  0  0
   -0.1646   -1.2121    0.8357 H   0  0  0  0  0  0  0  0  0  0  0  0
    0.7532   -0.0555   -0.0401 H   0  0  0  0  0  0  0  0  0  0  0  0
   -0.1901   -1.3818   -0.9106 H   0  0  0  0  0  0  0  0  0  0  0  0
  1  2  1  0  0  0  0
  1  5  1  0  0  0  0
  2  8  1  0  0  0  0
  3  1  1  0  0  0  0
  4  1  1  0  0  0  0
  6  2  1  0  0  0  0
  6 10  1  0  0  0  0
  7  2  1  0  0  0  0
  9  6  1  0  0  0  0
  9 12  1  0  0  0  0
 11  6  1  0  0  0  0
 13  9  1  0  0  0  0
 14  9  1  0  0  0  0
M  END
$$$$
