14
butane_opt
C  -3.934323   0.247819   0.001145
C  -2.701891  -0.580550   0.053495
H  -4.905194  -0.420627  -0.011722
H  -3.935601   0.826527  -0.858371
H  -3.884649   0.875001   0.846384
C  -1.410917   0.206543   0.031810
H  -2.716248  -1.301155  -0.806827
H  -2.621879  -1.219677   0.940647
C  -0.172172  -0.722974   0.034222
H  -1.442167   0.867829   0.845591
H  -1.385699   0.868449  -0.922718
H  -0.029532  -1.286701   0.904256
H   0.736315  -0.116695  -0.064639
H  -0.198191  -1.386571  -0.893724
