14
butane_opt
C  -3.981416   0.274999   0.010217
C  -2.712510  -0.627757   0.054495
H  -4.903476  -0.309054   0.191341
H  -3.981715   1.090442  -1.082491
H  -3.921413   0.754452   0.751908
C  -1.395402   0.179060   0.027903
H  -2.658922  -1.377731  -0.841778
H  -2.651344  -1.229919   0.917406
C  -0.141895  -0.679631   0.023589
H  -1.353495   0.905889   0.913540
H  -1.362249   0.759175  -0.790549
H  -0.136612  -1.239969   0.845297
H   0.800856  -0.088268   0.017980
H  -0.089825  -1.482932  -0.912878
