butane_opt
 OpenBabel08242015423D

 14 13  0  0  0  0  0  0  0  0999 V2000
   -3.9338    0.2876    0.0624 C   0  0  0  0  0  0  0  0  0  0  0  0
   -2.7088   -0.6189   -0.0134 C   0  0  0  0  0  0  0  0  0  0  0  0
   -4.8639   -0.3340    0.1469 H   0  0  0  0  0  0  0  0  0  0  0  0
   -4.0242    0.7476   -0.7285 H   0  0  0  0  0  0  0  0  0  0  0  0
   -3.9169    1.0318    0.9651 H   0  0  0  0  0  0  0  0  0  0  0  0
   -1.4018    0.1520   -0.0621 C   0  0  0  0  0  0  0  0  0  0  0  0
   -2.6813   -1.2685   -0.8757 H   0  0  0  0  0  0  0  0  0  0  0  0
   -2.6278   -1.2417    0.8814 H   0  0  0  0  0  0  0  0  0  0  0  0
   -0.1744   -0.6810    0.0885 C   0  0  0  0  0  0  0  0  0  0  0  0
   -1.4603    0.7634    0.7623 H   0  0  0  0  0  0  0  0  0  0  0  0
   -1.2403    0.8067   -0.9590 H   0  0  0  0  0  0  0  0  0  0  0  0
   -0.2238   -1.2854    0.9744 H   0  0  0  0  0  0  0  0  0  0  0  0
    0.7447   -0.0066    0.1389 H   0  0  0  0  0  0  0  0  0  0  0  0
   -0.1092   -1.3655   -0.7618 H   0  0  0  0  0  0  0  0  0  0  0  0
  1  3  1  0  0  0  0
  1  5  1  0  0  0  0
  2  1  1  0  0  0  0
  2  8  1  0  0  0  0
  4  1  1  0  0  0  0
  6  2  1  0  0  0  0
  6  9  1  0  0  0  0
  6 10  1  0  0  0  0
  7  2  1  0  0  0  0
  9 13  1  0  0  0  0
  9 12  1  0  0  0  0
 11  6  1  0  0  0  0
 14  9  1  0  0  0  0
M  END
$$$$
