butane_opt
 OpenBabel08242015423D

 14 13  0  0  0  0  0  0  0  0999 V2000
   -3.9716    0.2519    0.0023 C   0  0  0  0  0  0  0  0  0  0  0  0
   -2.7098   -0.5990    0.0784 C   0  0  0  0  0  0  0  0  0  0  0  0
   -4.8867   -0.3637    0.0500 H   0  0  0  0  0  0  0  0  0  0  0  0
   -3.9754    0.8685   -0.9381 H   0  0  0  0  0  0  0  0  0  0  0  0
   -3.9348    0.8451    0.8593 H   0  0  0  0  0  0  0  0  0  0  0  0
   -1.4000    0.2100    0.0047 C   0  0  0  0  0  0  0  0  0  0  0  0
   -2.6696   -1.2438   -0.8058 H   0  0  0  0  0  0  0  0  0  0  0  0
   -2.7398   -1.2631    0.9879 H   0  0  0  0  0  0  0  0  0  0  0  0
   -0.1329   -0.7059    0.0346 C   0  0  0  0  0  0  0  0  0  0  0  0
   -1.3550    0.8312    0.8135 H   0  0  0  0  0  0  0  0  0  0  0  0
   -1.4224    0.9015   -0.9392 H   0  0  0  0  0  0  0  0  0  0  0  0
   -0.1823   -1.1367    0.7911 H   0  0  0  0  0  0  0  0  0  0  0  0
    0.7656   -0.1271    0.1981 H   0  0  0  0  0  0  0  0  0  0  0  0
   -0.0443   -1.6790   -1.0412 H   0  0  0  0  0  0  0  0  0  0  0  0
  1  3  1  0  0  0  0
  1  2  1  0  0  0  0
  1  5  1  0  0  0  0
  2  8  1  0  0  0  0
  4  1  1  0  0  0  0
  6  9  1  0  0  0  0
  6  2  1  0  0  0  0
  6 10  1  0  0  0  0
  7  2  1  0  0  0  0
  9 13  1  0  0  0  0
  9 12  1  0  0  0  0
 11  6  1  0  0  0  0
 14  9  1  0  0  0  0
M  END
$$$$
