butane_opt
 OpenBabel08242015423D

 14 13  0  0  0  0  0  0  0  0999 V2000
   -3.9514    0.2572    0.0382 C   0  0  0  0  0  0  0  0  0  0  0  0
   -2.6988   -0.6088    0.0317 C   0  0  0  0  0  0  0  0  0  0  0  0
   -4.8550   -0.3592    0.0190 H   0  0  0  0  0  0  0  0  0  0  0  0
   -3.9313    0.8457   -0.8580 H   0  0  0  0  0  0  0  0  0  0  0  0
   -3.9716    0.9269    0.8987 H   0  0  0  0  0  0  0  0  0  0  0  0
   -1.4060    0.1918   -0.0255 C   0  0  0  0  0  0  0  0  0  0  0  0
   -2.6843   -1.2394   -0.7883 H   0  0  0  0  0  0  0  0  0  0  0  0
   -2.6701   -1.2372    0.9386 H   0  0  0  0  0  0  0  0  0  0  0  0
   -0.1565   -0.6978    0.0448 C   0  0  0  0  0  0  0  0  0  0  0  0
   -1.4012    0.8786    0.8489 H   0  0  0  0  0  0  0  0  0  0  0  0
   -1.3849    0.8159   -0.8962 H   0  0  0  0  0  0  0  0  0  0  0  0
   -0.2430   -1.2564    0.9069 H   0  0  0  0  0  0  0  0  0  0  0  0
    0.7276   -0.1214    0.1227 H   0  0  0  0  0  0  0  0  0  0  0  0
   -0.0482   -1.4449   -0.8341 H   0  0  0  0  0  0  0  0  0  0  0  0
  1  5  1  0  0  0  0
  2  1  1  0  0  0  0
  2  8  1  0  0  0  0
  3  1  1  0  0  0  0
  4  1  1  0  0  0  0
  6  2  1  0  0  0  0
  6  9  1  0  0  0  0
  6 10  1  0  0  0  0
  7  2  1  0  0  0  0
  9 13  1  0  0  0  0
  9 12  1  0  0  0  0
 11  6  1  0  0  0  0
 14  9  1  0  0  0  0
M  END
$$$$
