butane_opt
 OpenBabel08242015423D

 14 13  0  0  0  0  0  0  0  0999 V2000
   -3.9814    0.2750    0.0102 C   0  0  0  0  0  0  0  0  0  0  0  0
   -2.7125   -0.6278    0.0545 C   0  0  0  0  0  0  0  0  0  0  0  0
   -4.9035   -0.3091    0.1913 H   0  0  0  0  0  0  0  0  0  0  0  0
   -3.9817    1.0904   -1.0825 H   0  0  0  0  0  0  0  0  0  0  0  0
   -3.9214    0.7545    0.7519 H   0  0  0  0  0  0  0  0  0  0  0  0
   -1.3954    0.1791    0.0279 C   0  0  0  0  0  0  0  0  0  0  0  0
   -2.6589   -1.3777   -0.8418 H   0  0  0  0  0  0  0  0  0  0  0  0
   -2.6513   -1.2299    0.9174 H   0  0  0  0  0  0  0  0  0  0  0  0
   -0.1419   -0.6796    0.0236 C   0  0  0  0  0  0  0  0  0  0  0  0
   -1.3535    0.9059    0.9135 H   0  0  0  0  0  0  0  0  0  0  0  0
   -1.3622    0.7592   -0.7905 H   0  0  0  0  0  0  0  0  0  0  0  0
   -0.1366   -1.2400    0.8453 H   0  0  0  0  0  0  0  0  0  0  0  0
    0.8009   -0.0883    0.0180 H   0  0  0  0  0  0  0  0  0  0  0  0
   -0.0898   -1.4829   -0.9129 H   0  0  0  0  0  0  0  0  0  0  0  0
  1  2  1  0  0  0  0
  1  3  1  0  0  0  0
  1  5  1  0  0  0  0
  2  8  1  0  0  0  0
  4  1  1  0  0  0  0
  6  2  1  0  0  0  0
  6 10  1  0  0  0  0
  7  2  1  0  0  0  0
  9  6  1  0  0  0  0
  9 12  1  0  0  0  0
 11  6  1  0  0  0  0
 13  9  1  0  0  0  0
 14  9  1  0  0  0  0
M  END
$$$$
