butane_opt
 OpenBabel08242015423D

 14 13  0  0  0  0  0  0  0  0999 V2000
   -3.9489    0.2711    0.0382 C   0  0  0  0  0  0  0  0  0  0  0  0
   -2.7037   -0.6420   -0.0058 C   0  0  0  0  0  0  0  0  0  0  0  0
   -4.8058   -0.2290    0.0632 H   0  0  0  0  0  0  0  0  0  0  0  0
   -4.0717    0.8162   -0.7778 H   0  0  0  0  0  0  0  0  0  0  0  0
   -4.0387    1.0945    0.9801 H   0  0  0  0  0  0  0  0  0  0  0  0
   -1.3866    0.1801   -0.0036 C   0  0  0  0  0  0  0  0  0  0  0  0
   -2.7678   -1.3461   -0.8958 H   0  0  0  0  0  0  0  0  0  0  0  0
   -2.7108   -1.2028    0.8256 H   0  0  0  0  0  0  0  0  0  0  0  0
   -0.1654   -0.6963    0.0583 C   0  0  0  0  0  0  0  0  0  0  0  0
   -1.3055    0.8979    0.8336 H   0  0  0  0  0  0  0  0  0  0  0  0
   -1.3720    0.7473   -0.8668 H   0  0  0  0  0  0  0  0  0  0  0  0
   -0.1148   -1.4930    1.0769 H   0  0  0  0  0  0  0  0  0  0  0  0
    0.7701   -0.0774   -0.2028 H   0  0  0  0  0  0  0  0  0  0  0  0
   -0.1485   -1.0242   -0.5980 H   0  0  0  0  0  0  0  0  0  0  0  0
  1  3  1  0  0  0  0
  1  5  1  0  0  0  0
  2  6  1  0  0  0  0
  2  1  1  0  0  0  0
  2  8  1  0  0  0  0
  4  1  1  0  0  0  0
  6  9  1  0  0  0  0
  6 10  1  0  0  0  0
  7  2  1  0  0  0  0
  9 12  1  0  0  0  0
 11  6  1  0  0  0  0
 13  9  1  0  0  0  0
 14  9  1  0  0  0  0
M  END
$$$$
