butane_opt
 OpenBabel08242015423D

 14 13  0  0  0  0  0  0  0  0999 V2000
   -3.9554    0.2535    0.0697 C   0  0  0  0  0  0  0  0  0  0  0  0
   -2.7150   -0.6031    0.0056 C   0  0  0  0  0  0  0  0  0  0  0  0
   -4.8619   -0.3256   -0.1343 H   0  0  0  0  0  0  0  0  0  0  0  0
   -3.9156    0.7102   -0.7193 H   0  0  0  0  0  0  0  0  0  0  0  0
   -4.0245    1.0371    0.9853 H   0  0  0  0  0  0  0  0  0  0  0  0
   -1.4234    0.2063   -0.0557 C   0  0  0  0  0  0  0  0  0  0  0  0
   -2.7866   -1.3135   -0.8516 H   0  0  0  0  0  0  0  0  0  0  0  0
   -2.7054   -1.2534    0.9158 H   0  0  0  0  0  0  0  0  0  0  0  0
   -0.1277   -0.7142    0.0690 C   0  0  0  0  0  0  0  0  0  0  0  0
   -1.4405    0.8996    0.8101 H   0  0  0  0  0  0  0  0  0  0  0  0
   -1.3280    0.8157   -0.9664 H   0  0  0  0  0  0  0  0  0  0  0  0
   -0.1358   -1.3629    1.0448 H   0  0  0  0  0  0  0  0  0  0  0  0
    0.8286   -0.0939   -0.0027 H   0  0  0  0  0  0  0  0  0  0  0  0
   -0.0034   -1.2897   -0.6980 H   0  0  0  0  0  0  0  0  0  0  0  0
  1  5  1  0  0  0  0
  2  1  1  0  0  0  0
  2  8  1  0  0  0  0
  3  1  1  0  0  0  0
  4  1  1  0  0  0  0
  6  2  1  0  0  0  0
  6  9  1  0  0  0  0
  6 10  1  0  0  0  0
  7  2  1  0  0  0  0
  9 12  1  0  0  0  0
 11  6  1  0  0  0  0
 13  9  1  0  0  0  0
 14  9  1  0  0  0  0
M  END
$$$$
