14
butane_opt
C  -3.964165   0.284015   0.064463
C  -2.701585  -0.626412  -0.046679
H  -4.878547  -0.346529   0.093228
H  -4.089069   0.856251  -0.805245
H  -3.903211   1.042906   0.993765
C  -1.373724   0.152013  -0.018076
H  -2.790576  -1.315635  -0.876236
H  -2.597074  -1.247862   0.828399
C  -0.172577  -0.679402   0.087188
H  -1.424813   0.895603   0.863488
H  -1.296294   0.810901  -0.946956
H  -0.104034  -1.522412   1.089291
H   0.776160  -0.023242  -0.179105
H  -0.180985  -1.172428  -0.652849
