butane_opt
 OpenBabel08242015423D

 14 13  0  0  0  0  0  0  0  0999 V2000
   -3.9424    0.2672    0.0542 C   0  0  0  0  0  0  0  0  0  0  0  0
   -2.6957   -0.6239    0.0164 C   0  0  0  0  0  0  0  0  0  0  0  0
   -4.8046   -0.2747    0.0029 H   0  0  0  0  0  0  0  0  0  0  0  0
   -3.9906    0.9449   -0.8791 H   0  0  0  0  0  0  0  0  0  0  0  0
   -3.9661    0.9541    0.9419 H   0  0  0  0  0  0  0  0  0  0  0  0
   -1.3868    0.1661   -0.0298 C   0  0  0  0  0  0  0  0  0  0  0  0
   -2.8485   -1.3548   -0.8617 H   0  0  0  0  0  0  0  0  0  0  0  0
   -2.6125   -1.2287    0.9177 H   0  0  0  0  0  0  0  0  0  0  0  0
   -0.1752   -0.6899    0.0586 C   0  0  0  0  0  0  0  0  0  0  0  0
   -1.4299    0.8445    0.7838 H   0  0  0  0  0  0  0  0  0  0  0  0
   -1.3668    0.8793   -0.9462 H   0  0  0  0  0  0  0  0  0  0  0  0
   -0.2619   -1.2248    0.9325 H   0  0  0  0  0  0  0  0  0  0  0  0
    0.7325   -0.0791    0.1624 H   0  0  0  0  0  0  0  0  0  0  0  0
   -0.0737   -1.3697   -0.8324 H   0  0  0  0  0  0  0  0  0  0  0  0
  1  5  1  0  0  0  0
  2  1  1  0  0  0  0
  2  8  1  0  0  0  0
  3  1  1  0  0  0  0
  4  1  1  0  0  0  0
  6  2  1  0  0  0  0
  6  9  1  0  0  0  0
  6 10  1  0  0  0  0
  7  2  1  0  0  0  0
  9 13  1  0  0  0  0
  9 12  1  0  0  0  0
 11  6  1  0  0  0  0
 14  9  1  0  0  0  0
M  END
$$$$
