butane_opt
 OpenBabel08242015423D

 14 13  0  0  0  0  0  0  0  0999 V2000
   -3.9002    0.2545   -0.0201 C   0  0  0  0  0  0  0  0  0  0  0  0
   -2.7108   -0.6085    0.0991 C   0  0  0  0  0  0  0  0  0  0  0  0
   -4.8793   -0.3887   -0.1373 H   0  0  0  0  0  0  0  0  0  0  0  0
   -3.8548    0.8208   -0.9250 H   0  0  0  0  0  0  0  0  0  0  0  0
   -3.9965    0.9584    0.8543 H   0  0  0  0  0  0  0  0  0  0  0  0
   -1.4177    0.2099    0.0493 C   0  0  0  0  0  0  0  0  0  0  0  0
   -2.7308   -1.2778   -0.7220 H   0  0  0  0  0  0  0  0  0  0  0  0
   -2.7938   -1.1371    0.9392 H   0  0  0  0  0  0  0  0  0  0  0  0
   -0.1681   -0.7133   -0.0100 C   0  0  0  0  0  0  0  0  0  0  0  0
   -1.4209    0.8887    0.9338 H   0  0  0  0  0  0  0  0  0  0  0  0
   -1.4867    0.8185   -0.8579 H   0  0  0  0  0  0  0  0  0  0  0  0
   -0.0809   -1.3921    0.8937 H   0  0  0  0  0  0  0  0  0  0  0  0
    0.7757   -0.1313   -0.0891 H   0  0  0  0  0  0  0  0  0  0  0  0
   -0.1925   -1.3453   -0.8609 H   0  0  0  0  0  0  0  0  0  0  0  0
  1  2  1  0  0  0  0
  1  5  1  0  0  0  0
  2  8  1  0  0  0  0
  3  1  1  0  0  0  0
  4  1  1  0  0  0  0
  6  2  1  0  0  0  0
  6 10  1  0  0  0  0
  7  2  1  0  0  0  0
  9  6  1  0  0  0  0
  9 12  1  0  0  0  0
 11  6  1  0  0  0  0
 13  9  1  0  0  0  0
 14  9  1  0  0  0  0
M  END
$$$$
