14
butane_opt
C  -3.942383   0.267213   0.054185
C  -2.695671  -0.623935   0.016404
H  -4.804575  -0.274712   0.002932
H  -3.990571   0.944950  -0.879107
H  -3.966146   0.954148   0.941934
C  -1.386774   0.166136  -0.029751
H  -2.848474  -1.354843  -0.861706
H  -2.612513  -1.228669   0.917686
C  -0.175179  -0.689851   0.058635
H  -1.429869   0.844513   0.783832
H  -1.366835   0.879271  -0.946174
H  -0.261944  -1.224751   0.932486
H   0.732490  -0.079058   0.162407
H  -0.073701  -1.369691  -0.832417
