butane_opt
 OpenBabel08242015423D

 14 13  0  0  0  0  0  0  0  0999 V2000
   -3.9478    0.2469    0.0394 C   0  0  0  0  0  0  0  0  0  0  0  0
   -2.7060   -0.6025    0.0165 C   0  0  0  0  0  0  0  0  0  0  0  0
   -4.8497   -0.3676    0.0756 H   0  0  0  0  0  0  0  0  0  0  0  0
   -3.9772    0.8660   -0.8407 H   0  0  0  0  0  0  0  0  0  0  0  0
   -3.9539    0.9658    0.9436 H   0  0  0  0  0  0  0  0  0  0  0  0
   -1.4057    0.2103   -0.0282 C   0  0  0  0  0  0  0  0  0  0  0  0
   -2.7058   -1.2897   -0.8321 H   0  0  0  0  0  0  0  0  0  0  0  0
   -2.7094   -1.2767    0.9391 H   0  0  0  0  0  0  0  0  0  0  0  0
   -0.1520   -0.7027    0.0601 C   0  0  0  0  0  0  0  0  0  0  0  0
   -1.4180    0.8552    0.8293 H   0  0  0  0  0  0  0  0  0  0  0  0
   -1.3550    0.8489   -0.9230 H   0  0  0  0  0  0  0  0  0  0  0  0
   -0.1463   -1.2961    0.9325 H   0  0  0  0  0  0  0  0  0  0  0  0
    0.7131   -0.1525    0.1066 H   0  0  0  0  0  0  0  0  0  0  0  0
   -0.0721   -1.4533   -0.8471 H   0  0  0  0  0  0  0  0  0  0  0  0
  1  3  1  0  0  0  0
  1  5  1  0  0  0  0
  2  1  1  0  0  0  0
  2  8  1  0  0  0  0
  4  1  1  0  0  0  0
  6  2  1  0  0  0  0
  6  9  1  0  0  0  0
  6 10  1  0  0  0  0
  7  2  1  0  0  0  0
  9 13  1  0  0  0  0
  9 12  1  0  0  0  0
 11  6  1  0  0  0  0
 14  9  1  0  0  0  0
M  END
$$$$
