14
butane_opt
C  -3.945592   0.250045  -0.018787
C  -2.714107  -0.603224   0.091704
H  -4.876302  -0.388418  -0.107101
H  -3.855367   0.810063  -0.902509
H  -4.089322   1.029831   0.928221
C  -1.401567   0.193977   0.037279
H  -2.707977  -1.214443  -0.732164
H  -2.798963  -1.240786   1.017412
C  -0.141899  -0.702702  -0.021359
H  -1.434047   0.895427   0.904779
H  -1.485705   0.782563  -0.829056
H  -0.066464  -1.342760   0.891869
H   0.750690  -0.105144   0.021856
H  -0.022944  -1.356847  -0.803652
