butane_opt
 OpenBabel08242015423D

 14 13  0  0  0  0  0  0  0  0999 V2000
   -3.9610    0.2381    0.0376 C   0  0  0  0  0  0  0  0  0  0  0  0
   -2.6939   -0.5854   -0.0067 C   0  0  0  0  0  0  0  0  0  0  0  0
   -4.9123   -0.3980    0.2065 H   0  0  0  0  0  0  0  0  0  0  0  0
   -4.0511    0.9458   -0.8608 H   0  0  0  0  0  0  0  0  0  0  0  0
   -3.8695    0.8043    0.8643 H   0  0  0  0  0  0  0  0  0  0  0  0
   -1.4061    0.2014   -0.0030 C   0  0  0  0  0  0  0  0  0  0  0  0
   -2.7875   -1.2015   -0.8459 H   0  0  0  0  0  0  0  0  0  0  0  0
   -2.6947   -1.2392    0.8831 H   0  0  0  0  0  0  0  0  0  0  0  0
   -0.1324   -0.7108    0.0610 C   0  0  0  0  0  0  0  0  0  0  0  0
   -1.4084    0.8882    0.8191 H   0  0  0  0  0  0  0  0  0  0  0  0
   -1.3825    0.8625   -0.8723 H   0  0  0  0  0  0  0  0  0  0  0  0
   -0.1697   -1.2396    0.9236 H   0  0  0  0  0  0  0  0  0  0  0  0
    0.6507   -0.2271    0.0523 H   0  0  0  0  0  0  0  0  0  0  0  0
   -0.0472   -1.4172   -0.8201 H   0  0  0  0  0  0  0  0  0  0  0  0
  1  3  1  0  0  0  0
  1  5  1  0  0  0  0
  2  6  1  0  0  0  0
  2  1  1  0  0  0  0
  2  8  1  0  0  0  0
  4  1  1  0  0  0  0
  6  9  1  0  0  0  0
  6 10  1  0  0  0  0
  7  2  1  0  0  0  0
  9 12  1  0  0  0  0
 11  6  1  0  0  0  0
 13  9  1  0  0  0  0
 14  9  1  0  0  0  0
M  END
$$$$
