14
butane_opt
C  -3.939807   0.258542   0.081852
C  -2.688441  -0.602931  -0.033070
H  -4.925039  -0.427717   0.232370
H  -4.031665   0.934447  -0.817517
H  -3.876429   0.844247   0.884265
C  -1.406379   0.188508  -0.041940
H  -2.765155  -1.362956  -0.950442
H  -2.538175  -1.097234   0.736337
C  -0.172725  -0.703555   0.083970
H  -1.456480   0.837130   0.729431
H  -1.385088   0.883238  -0.964133
H  -0.199855  -1.381947   1.065256
H   0.751975  -0.073293   0.158015
H  -0.096380  -1.331149  -0.721483
