butane_opt
 OpenBabel08242015423D

 14 13  0  0  0  0  0  0  0  0999 V2000
   -3.9141    0.2503    0.0712 C   0  0  0  0  0  0  0  0  0  0  0  0
   -2.7075   -0.5997   -0.0321 C   0  0  0  0  0  0  0  0  0  0  0  0
   -4.8801   -0.3753    0.2952 H   0  0  0  0  0  0  0  0  0  0  0  0
   -4.0071    0.9721   -0.8476 H   0  0  0  0  0  0  0  0  0  0  0  0
   -3.7608    0.7417    0.8180 H   0  0  0  0  0  0  0  0  0  0  0  0
   -1.4236    0.2147   -0.0250 C   0  0  0  0  0  0  0  0  0  0  0  0
   -2.7641   -1.3292   -0.9774 H   0  0  0  0  0  0  0  0  0  0  0  0
   -2.6595   -1.1048    0.7684 H   0  0  0  0  0  0  0  0  0  0  0  0
   -0.1818   -0.7228    0.0710 C   0  0  0  0  0  0  0  0  0  0  0  0
   -1.3219    0.8654    0.8197 H   0  0  0  0  0  0  0  0  0  0  0  0
   -1.3992    0.8848   -0.9332 H   0  0  0  0  0  0  0  0  0  0  0  0
   -0.1547   -1.3817    1.0254 H   0  0  0  0  0  0  0  0  0  0  0  0
    0.7080   -0.1428    0.1516 H   0  0  0  0  0  0  0  0  0  0  0  0
   -0.0548   -1.3271   -0.6976 H   0  0  0  0  0  0  0  0  0  0  0  0
  1  3  1  0  0  0  0
  1  5  1  0  0  0  0
  2  6  1  0  0  0  0
  2  1  1  0  0  0  0
  2  8  1  0  0  0  0
  4  1  1  0  0  0  0
  6  9  1  0  0  0  0
  6 10  1  0  0  0  0
  7  2  1  0  0  0  0
  9 13  1  0  0  0  0
  9 12  1  0  0  0  0
 11  6  1  0  0  0  0
 14  9  1  0  0  0  0
M  END
$$$$
