14
butane_opt
C  -3.934850   0.271109   0.003227
C  -2.703774  -0.610431   0.041523
H  -4.882778  -0.359465  -0.031286
H  -3.912975   0.845031  -0.860641
H  -3.976563   0.929883   0.876520
C  -1.395342   0.187887   0.038952
H  -2.738722  -1.303900  -0.836637
H  -2.750058  -1.296859   0.995306
C  -0.180401  -0.693622   0.019370
H  -1.403984   0.894203   0.902923
H  -1.367435   0.806671  -0.802453
H  -0.044338  -1.412154   0.961274
H   0.724071  -0.149767  -0.191180
H  -0.104102  -1.283153  -0.812956
