14
butane_opt
C  -3.933067   0.273395  -0.024795
C  -2.675569  -0.633091   0.061224
H  -4.866629  -0.367949   0.302354
H  -4.053315   1.108440  -1.032939
H  -3.930343   0.783315   0.696576
C  -1.396950   0.176367   0.055898
H  -2.635522  -1.319381  -0.751361
H  -2.694253  -1.225994   0.934112
C  -0.186289  -0.688793  -0.008620
H  -1.386555   0.980787   0.987258
H  -1.478531   0.666246  -0.724776
H  -0.201034  -1.266054   0.864765
H   0.712307  -0.061104   0.034009
H  -0.178459  -1.305753  -0.887643
