14
butane_opt
C  -3.948215   0.281831  -0.038987
C  -2.666755  -0.620681   0.094381
H  -4.910286  -0.320100  -0.066142
H  -3.910345   0.867301  -0.922203
H  -4.081822   0.984115   0.867990
C  -1.401123   0.146217   0.058503
H  -2.629588  -1.220390  -0.682051
H  -2.733826  -1.387069   1.109097
C  -0.191713  -0.669148  -0.019215
H  -1.370293   0.909911   0.924313
H  -1.346392   0.728541  -0.800678
H  -0.113811  -1.248075   0.828234
H   0.781598  -0.015338  -0.019552
H  -0.218601  -1.427938  -0.940035
