14
butane_opt
C  -3.914095   0.250337   0.071197
C  -2.707484  -0.599672  -0.032111
H  -4.880119  -0.375335   0.295199
H  -4.007060   0.972139  -0.847596
H  -3.760805   0.741743   0.817963
C  -1.423569   0.214667  -0.025019
H  -2.764119  -1.329215  -0.977388
H  -2.659461  -1.104773   0.768439
C  -0.181794  -0.722751   0.071040
H  -1.321946   0.865404   0.819731
H  -1.399181   0.884848  -0.933209
H  -0.154688  -1.381687   1.025440
H   0.708001  -0.142769   0.151552
H  -0.054833  -1.327058  -0.697570
