butane_opt
 OpenBabel08242015423D

 14 13  0  0  0  0  0  0  0  0999 V2000
   -3.9401    0.2511   -0.0158 C   0  0  0  0  0  0  0  0  0  0  0  0
   -2.7175   -0.6140    0.0846 C   0  0  0  0  0  0  0  0  0  0  0  0
   -4.8716   -0.3833   -0.2043 H   0  0  0  0  0  0  0  0  0  0  0  0
   -3.8360    0.6943   -0.8204 H   0  0  0  0  0  0  0  0  0  0  0  0
   -4.0331    1.0507    0.8834 H   0  0  0  0  0  0  0  0  0  0  0  0
   -1.4174    0.2336    0.0495 C   0  0  0  0  0  0  0  0  0  0  0  0
   -2.7207   -1.2396   -0.7448 H   0  0  0  0  0  0  0  0  0  0  0  0
   -2.7062   -1.2534    1.0164 H   0  0  0  0  0  0  0  0  0  0  0  0
   -0.1566   -0.7138    0.0068 C   0  0  0  0  0  0  0  0  0  0  0  0
   -1.3781    0.8149    0.8495 H   0  0  0  0  0  0  0  0  0  0  0  0
   -1.3748    0.9215   -0.8900 H   0  0  0  0  0  0  0  0  0  0  0  0
    0.0151   -1.3812    0.8750 H   0  0  0  0  0  0  0  0  0  0  0  0
    0.7608   -0.1560   -0.1379 H   0  0  0  0  0  0  0  0  0  0  0  0
   -0.1013   -1.4310   -0.8824 H   0  0  0  0  0  0  0  0  0  0  0  0
  1  2  1  0  0  0  0
  1  5  1  0  0  0  0
  2  8  1  0  0  0  0
  3  1  1  0  0  0  0
  4  1  1  0  0  0  0
  6  2  1  0  0  0  0
  6 10  1  0  0  0  0
  7  2  1  0  0  0  0
  9  6  1  0  0  0  0
  9 12  1  0  0  0  0
 11  6  1  0  0  0  0
 13  9  1  0  0  0  0
 14  9  1  0  0  0  0
M  END
$$$$
