14
butane_opt
C  -3.903859   0.241672  -0.034168
C  -2.696133  -0.602244   0.071949
H  -4.854248  -0.346031   0.084251
H  -3.860224   1.007813  -1.024498
H  -4.018517   0.790399   0.750594
C  -1.444521   0.211781   0.091849
H  -2.743172  -1.219856  -0.764810
H  -2.723835  -1.252554   1.011943
C  -0.166084  -0.708142  -0.024420
H  -1.387058   0.950754   0.969256
H  -1.467552   0.691904  -0.713871
H   0.000095  -1.362229   0.873412
H   0.755162  -0.104384  -0.164241
H  -0.193229  -1.340261  -0.854412
