14
butane_opt
C  -3.931050   0.256850  -0.016313
C  -2.697591  -0.593461   0.080671
H  -4.824687  -0.354534   0.172817
H  -3.895896   0.991163  -0.992258
H  -3.949073   0.725308   0.734270
C  -1.416042   0.196102   0.042211
H  -2.672219  -1.273374  -0.758873
H  -2.742449  -1.231609   0.984657
C  -0.174973  -0.701987  -0.005251
H  -1.255431   0.810851   0.920205
H  -1.429606   0.836232  -0.846407
H  -0.241168  -1.147789   0.799927
H   0.698348  -0.146901   0.221607
H  -0.071218  -1.577282  -1.035596
