14
butane_opt
C  -3.933739   0.269173  -0.003578
C  -2.686523  -0.620714   0.073665
H  -4.844436  -0.298114   0.043358
H  -4.006182   0.945459  -0.950150
H  -3.947900   0.872137   0.807658
C  -1.416859   0.156334   0.025355
H  -2.676131  -1.240213  -0.748052
H  -2.773172  -1.223727   0.994985
C  -0.155303  -0.679749   0.012662
H  -1.416607   0.786141   0.849775
H  -1.443627   0.823885  -0.890745
H  -0.172977  -1.070148   0.782235
H   0.736934  -0.065574   0.170437
H  -0.171879  -1.508665  -0.940499
