butane_opt
 OpenBabel08242015423D

 14 13  0  0  0  0  0  0  0  0999 V2000
   -3.9673    0.2756    0.0532 C   0  0  0  0  0  0  0  0  0  0  0  0
   -2.6846   -0.6333   -0.0124 C   0  0  0  0  0  0  0  0  0  0  0  0
   -4.8353   -0.2600   -0.0397 H   0  0  0  0  0  0  0  0  0  0  0  0
   -4.0786    0.7985   -0.7793 H   0  0  0  0  0  0  0  0  0  0  0  0
   -4.0008    1.0219    0.9838 H   0  0  0  0  0  0  0  0  0  0  0  0
   -1.3874    0.1674   -0.0093 C   0  0  0  0  0  0  0  0  0  0  0  0
   -2.7637   -1.2590   -0.8791 H   0  0  0  0  0  0  0  0  0  0  0  0
   -2.7125   -1.2551    0.8856 H   0  0  0  0  0  0  0  0  0  0  0  0
   -0.1598   -0.6825    0.0626 C   0  0  0  0  0  0  0  0  0  0  0  0
   -1.5061    0.8242    0.8262 H   0  0  0  0  0  0  0  0  0  0  0  0
   -1.2898    0.7748   -0.8938 H   0  0  0  0  0  0  0  0  0  0  0  0
   -0.0605   -1.4303    1.0013 H   0  0  0  0  0  0  0  0  0  0  0  0
    0.7957   -0.0621   -0.1317 H   0  0  0  0  0  0  0  0  0  0  0  0
   -0.1890   -1.1337   -0.6492 H   0  0  0  0  0  0  0  0  0  0  0  0
  1  5  1  0  0  0  0
  2  6  1  0  0  0  0
  2  1  1  0  0  0  0
  2  8  1  0  0  0  0
  3  1  1  0  0  0  0
  4  1  1  0  0  0  0
  6  9  1  0  0  0  0
  6 10  1  0  0  0  0
  7  2  1  0  0  0  0
  9 12  1  0  0  0  0
 11  6  1  0  0  0  0
 13  9  1  0  0  0  0
 14  9  1  0  0  0  0
M  END
$$$$
