14
butane_opt
C  -3.940072   0.289856   0.073900
C  -2.681163  -0.633046  -0.045788
H  -4.858589  -0.293822   0.097518
H  -4.084527   0.836516  -0.772467
H  -3.932493   0.938340   0.934685
C  -1.396093   0.158917  -0.032040
H  -2.767436  -1.252557  -0.866170
H  -2.675867  -1.262798   0.848900
C  -0.173554  -0.682154   0.087094
H  -1.427603   0.825576   0.797152
H  -1.332429   0.798346  -0.894082
H  -0.248723  -1.360487   1.048274
H   0.819126  -0.029439  -0.068442
H  -0.223792  -1.268196  -0.684924
