butane_opt
 OpenBabel08242015423D

 14 13  0  0  0  0  0  0  0  0999 V2000
   -3.9504    0.2478    0.0399 C   0  0  0  0  0  0  0  0  0  0  0  0
   -2.7399   -0.6012    0.0155 C   0  0  0  0  0  0  0  0  0  0  0  0
   -4.8467   -0.2907   -0.1444 H   0  0  0  0  0  0  0  0  0  0  0  0
   -3.8928    0.7099   -0.7547 H   0  0  0  0  0  0  0  0  0  0  0  0
   -3.9878    1.1084    1.0114 H   0  0  0  0  0  0  0  0  0  0  0  0
   -1.3996    0.2035   -0.0198 C   0  0  0  0  0  0  0  0  0  0  0  0
   -2.7943   -1.2085   -0.7483 H   0  0  0  0  0  0  0  0  0  0  0  0
   -2.6823   -1.2976    0.9627 H   0  0  0  0  0  0  0  0  0  0  0  0
   -0.1310   -0.7058    0.0567 C   0  0  0  0  0  0  0  0  0  0  0  0
   -1.4328    0.7974    0.7866 H   0  0  0  0  0  0  0  0  0  0  0  0
   -1.3510    0.8581   -0.9430 H   0  0  0  0  0  0  0  0  0  0  0  0
   -0.1015   -1.3367    1.0120 H   0  0  0  0  0  0  0  0  0  0  0  0
    0.7731   -0.1340   -0.0271 H   0  0  0  0  0  0  0  0  0  0  0  0
   -0.0652   -1.4119   -0.8241 H   0  0  0  0  0  0  0  0  0  0  0  0
  1  5  1  0  0  0  0
  2  1  1  0  0  0  0
  2  8  1  0  0  0  0
  3  1  1  0  0  0  0
  4  1  1  0  0  0  0
  6  2  1  0  0  0  0
  6  9  1  0  0  0  0
  6 10  1  0  0  0  0
  7  2  1  0  0  0  0
  9 12  1  0  0  0  0
 11  6  1  0  0  0  0
 13  9  1  0  0  0  0
 14  9  1  0  0  0  0
M  END
$$$$
