butane_opt
 OpenBabel08242015423D

 14 13  0  0  0  0  0  0  0  0999 V2000
   -3.9310    0.2569   -0.0163 C   0  0  0  0  0  0  0  0  0  0  0  0
   -2.6976   -0.5935    0.0807 C   0  0  0  0  0  0  0  0  0  0  0  0
   -4.8247   -0.3545    0.1728 H   0  0  0  0  0  0  0  0  0  0  0  0
   -3.8959    0.9912   -0.9923 H   0  0  0  0  0  0  0  0  0  0  0  0
   -3.9491    0.7253    0.7343 H   0  0  0  0  0  0  0  0  0  0  0  0
   -1.4160    0.1961    0.0422 C   0  0  0  0  0  0  0  0  0  0  0  0
   -2.6722   -1.2734   -0.7589 H   0  0  0  0  0  0  0  0  0  0  0  0
   -2.7424   -1.2316    0.9847 H   0  0  0  0  0  0  0  0  0  0  0  0
   -0.1750   -0.7020   -0.0053 C   0  0  0  0  0  0  0  0  0  0  0  0
   -1.2554    0.8109    0.9202 H   0  0  0  0  0  0  0  0  0  0  0  0
   -1.4296    0.8362   -0.8464 H   0  0  0  0  0  0  0  0  0  0  0  0
   -0.2412   -1.1478    0.7999 H   0  0  0  0  0  0  0  0  0  0  0  0
    0.6983   -0.1469    0.2216 H   0  0  0  0  0  0  0  0  0  0  0  0
   -0.0712   -1.5773   -1.0356 H   0  0  0  0  0  0  0  0  0  0  0  0
  1  2  1  0  0  0  0
  1  3  1  0  0  0  0
  1  5  1  0  0  0  0
  2  8  1  0  0  0  0
  4  1  1  0  0  0  0
  6  2  1  0  0  0  0
  6 10  1  0  0  0  0
  7  2  1  0  0  0  0
  9  6  1  0  0  0  0
  9 13  1  0  0  0  0
  9 12  1  0  0  0  0
 11  6  1  0  0  0  0
 14  9  1  0  0  0  0
M  END
$$$$
