butane_opt
 OpenBabel08242015423D

 14 13  0  0  0  0  0  0  0  0999 V2000
   -3.9424    0.2395   -0.0288 C   0  0  0  0  0  0  0  0  0  0  0  0
   -2.6839   -0.5822    0.1009 C   0  0  0  0  0  0  0  0  0  0  0  0
   -4.9144   -0.4182   -0.1349 H   0  0  0  0  0  0  0  0  0  0  0  0
   -3.8206    0.8725   -0.9750 H   0  0  0  0  0  0  0  0  0  0  0  0
   -4.0318    0.9747    0.8550 H   0  0  0  0  0  0  0  0  0  0  0  0
   -1.4146    0.1964    0.0728 C   0  0  0  0  0  0  0  0  0  0  0  0
   -2.7135   -1.2897   -0.7203 H   0  0  0  0  0  0  0  0  0  0  0  0
   -2.7832   -1.2380    1.0118 H   0  0  0  0  0  0  0  0  0  0  0  0
   -0.1577   -0.7017   -0.0204 C   0  0  0  0  0  0  0  0  0  0  0  0
   -1.4103    0.8753    0.9293 H   0  0  0  0  0  0  0  0  0  0  0  0
   -1.3660    0.8565   -0.8562 H   0  0  0  0  0  0  0  0  0  0  0  0
   -0.0736   -1.3220    0.8557 H   0  0  0  0  0  0  0  0  0  0  0  0
    0.6843   -0.1837   -0.1472 H   0  0  0  0  0  0  0  0  0  0  0  0
   -0.1933   -1.4331   -0.8838 H   0  0  0  0  0  0  0  0  0  0  0  0
  1  2  1  0  0  0  0
  1  5  1  0  0  0  0
  2  8  1  0  0  0  0
  3  1  1  0  0  0  0
  4  1  1  0  0  0  0
  6  2  1  0  0  0  0
  6 10  1  0  0  0  0
  7  2  1  0  0  0  0
  9  6  1  0  0  0  0
  9 12  1  0  0  0  0
 11  6  1  0  0  0  0
 13  9  1  0  0  0  0
 14  9  1  0  0  0  0
M  END
$$$$
