butane_opt
 OpenBabel08242015423D

 14 13  0  0  0  0  0  0  0  0999 V2000
   -3.9162    0.2375   -0.0144 C   0  0  0  0  0  0  0  0  0  0  0  0
   -2.7043   -0.5949    0.0486 C   0  0  0  0  0  0  0  0  0  0  0  0
   -4.8592   -0.3759    0.3142 H   0  0  0  0  0  0  0  0  0  0  0  0
   -4.0271    1.0962   -1.0591 H   0  0  0  0  0  0  0  0  0  0  0  0
   -3.8701    0.6604    0.7363 H   0  0  0  0  0  0  0  0  0  0  0  0
   -1.4218    0.2145    0.0523 C   0  0  0  0  0  0  0  0  0  0  0  0
   -2.6516   -1.2223   -0.7355 H   0  0  0  0  0  0  0  0  0  0  0  0
   -2.7083   -1.2037    0.9029 H   0  0  0  0  0  0  0  0  0  0  0  0
   -0.1658   -0.7096   -0.0080 C   0  0  0  0  0  0  0  0  0  0  0  0
   -1.4115    0.9985    1.0071 H   0  0  0  0  0  0  0  0  0  0  0  0
   -1.4250    0.7440   -0.7423 H   0  0  0  0  0  0  0  0  0  0  0  0
   -0.2208   -1.3080    0.8866 H   0  0  0  0  0  0  0  0  0  0  0  0
    0.7267   -0.1786    0.0607 H   0  0  0  0  0  0  0  0  0  0  0  0
   -0.0633   -1.4588   -0.9087 H   0  0  0  0  0  0  0  0  0  0  0  0
  1  2  1  0  0  0  0
  1  3  1  0  0  0  0
  1  5  1  0  0  0  0
  2  6  1  0  0  0  0
  2  8  1  0  0  0  0
  4  1  1  0  0  0  0
  6 10  1  0  0  0  0
  7  2  1  0  0  0  0
  9  6  1  0  0  0  0
  9 13  1  0  0  0  0
  9 12  1  0  0  0  0
 11  6  1  0  0  0  0
 14  9  1  0  0  0  0
M  END
$$$$
