butane_opt
 OpenBabel08242015423D

 14 13  0  0  0  0  0  0  0  0999 V2000
   -3.9501    0.2657    0.0497 C   0  0  0  0  0  0  0  0  0  0  0  0
   -2.6920   -0.6189    0.0035 C   0  0  0  0  0  0  0  0  0  0  0  0
   -4.8317   -0.3225   -0.0057 H   0  0  0  0  0  0  0  0  0  0  0  0
   -3.9982    0.8495   -0.8506 H   0  0  0  0  0  0  0  0  0  0  0  0
   -4.0153    1.0240    0.9569 H   0  0  0  0  0  0  0  0  0  0  0  0
   -1.4067    0.1693   -0.0088 C   0  0  0  0  0  0  0  0  0  0  0  0
   -2.6983   -1.3377   -0.8817 H   0  0  0  0  0  0  0  0  0  0  0  0
   -2.7025   -1.1742    0.8727 H   0  0  0  0  0  0  0  0  0  0  0  0
   -0.1541   -0.6874    0.0558 C   0  0  0  0  0  0  0  0  0  0  0  0
   -1.3770    0.8527    0.8468 H   0  0  0  0  0  0  0  0  0  0  0  0
   -1.3703    0.7858   -0.8989 H   0  0  0  0  0  0  0  0  0  0  0  0
   -0.1688   -1.4380    1.0536 H   0  0  0  0  0  0  0  0  0  0  0  0
    0.7836   -0.0734   -0.1246 H   0  0  0  0  0  0  0  0  0  0  0  0
   -0.2003   -1.1780   -0.7087 H   0  0  0  0  0  0  0  0  0  0  0  0
  1  5  1  0  0  0  0
  2  1  1  0  0  0  0
  2  8  1  0  0  0  0
  3  1  1  0  0  0  0
  4  1  1  0  0  0  0
  6  2  1  0  0  0  0
  6  9  1  0  0  0  0
  6 10  1  0  0  0  0
  7  2  1  0  0  0  0
  9 12  1  0  0  0  0
 11  6  1  0  0  0  0
 13  9  1  0  0  0  0
 14  9  1  0  0  0  0
M  END
$$$$
