14
butane_opt
C  -3.932841   0.288327  -0.018645
C  -2.694988  -0.638734   0.094083
H  -4.853148  -0.308370  -0.178530
H  -3.891855   0.818919  -0.832414
H  -4.083671   1.104068   0.952585
C  -1.390829   0.151809   0.036338
H  -2.632645  -1.328862  -0.773291
H  -2.758033  -1.321509   1.032602
C  -0.183993  -0.661400   0.002541
H  -1.361112   0.770371   0.839988
H  -1.398494   0.881178  -0.878492
H  -0.199567  -1.263285   0.881696
H   0.745088  -0.106380  -0.046592
H  -0.161908  -1.400055  -0.924832
