14
butane_opt
C  -3.931533   0.267263   0.053824
C  -2.687625  -0.621221   0.006976
H  -4.835235  -0.331404   0.135292
H  -4.008273   0.869587  -0.847626
H  -3.942467   0.971439   0.932784
C  -1.415698   0.178039  -0.043407
H  -2.779162  -1.313647  -0.862535
H  -2.680219  -1.229851   0.877759
C  -0.171817  -0.685899   0.067951
H  -1.449534   0.863895   0.775636
H  -1.360684   0.785061  -0.922256
H  -0.210378  -1.278603   0.972067
H   0.762657  -0.085601   0.152767
H  -0.045489  -1.376653  -0.797838
