14
butane_opt
C  -3.966093   0.291162   0.061637
C  -2.694683  -0.660499  -0.022467
H  -4.852272  -0.279624   0.215454
H  -4.209871   1.003092  -0.839387
H  -3.911309   0.830720   0.854825
C  -1.372184   0.177656  -0.028194
H  -2.711503  -1.409711  -0.872637
H  -2.659456  -1.176097   0.792534
C  -0.167904  -0.677892   0.084968
H  -1.401116   0.864959   0.821605
H  -1.308235   0.865726  -0.947790
H  -0.171927  -1.284175   0.967016
H   0.753110  -0.107198   0.043913
H  -0.140780  -1.342569  -0.766918
