14
butane_opt
C  -3.961544   0.274524  -0.001990
C  -2.707494  -0.628798   0.017426
H  -4.823035  -0.265293   0.307625
H  -4.090847   1.027646  -0.954004
H  -3.923766   0.794978   0.774850
C  -1.386246   0.173001   0.043135
H  -2.699069  -1.249047  -0.799174
H  -2.649740  -1.332691   0.939400
C  -0.160999  -0.679138   0.023541
H  -1.348230   0.916431   0.990395
H  -1.280123   0.773420  -0.866081
H  -0.142095  -1.269222   0.871358
H   0.717354  -0.122184   0.013020
H  -0.188264  -1.412545  -0.845268
