butane_opt
 OpenBabel08242015423D

 14 13  0  0  0  0  0  0  0  0999 V2000
   -3.9615    0.2745   -0.0020 C   0  0  0  0  0  0  0  0  0  0  0  0
   -2.7075   -0.6288    0.0174 C   0  0  0  0  0  0  0  0  0  0  0  0
   -4.8230   -0.2653    0.3076 H   0  0  0  0  0  0  0  0  0  0  0  0
   -4.0908    1.0276   -0.9540 H   0  0  0  0  0  0  0  0  0  0  0  0
   -3.9238    0.7950    0.7749 H   0  0  0  0  0  0  0  0  0  0  0  0
   -1.3862    0.1730    0.0431 C   0  0  0  0  0  0  0  0  0  0  0  0
   -2.6991   -1.2490   -0.7992 H   0  0  0  0  0  0  0  0  0  0  0  0
   -2.6497   -1.3327    0.9394 H   0  0  0  0  0  0  0  0  0  0  0  0
   -0.1610   -0.6791    0.0235 C   0  0  0  0  0  0  0  0  0  0  0  0
   -1.3482    0.9164    0.9904 H   0  0  0  0  0  0  0  0  0  0  0  0
   -1.2801    0.7734   -0.8661 H   0  0  0  0  0  0  0  0  0  0  0  0
   -0.1421   -1.2692    0.8714 H   0  0  0  0  0  0  0  0  0  0  0  0
    0.7174   -0.1222    0.0130 H   0  0  0  0  0  0  0  0  0  0  0  0
   -0.1883   -1.4125   -0.8453 H   0  0  0  0  0  0  0  0  0  0  0  0
  1  2  1  0  0  0  0
  1  3  1  0  0  0  0
  1  5  1  0  0  0  0
  2  6  1  0  0  0  0
  2  8  1  0  0  0  0
  4  1  1  0  0  0  0
  6 10  1  0  0  0  0
  7  2  1  0  0  0  0
  9  6  1  0  0  0  0
  9 12  1  0  0  0  0
 11  6  1  0  0  0  0
 13  9  1  0  0  0  0
 14  9  1  0  0  0  0
M  END
$$$$
