14
butane_opt
C  -3.946477   0.272544   0.050102
C  -2.719048  -0.638423   0.035079
H  -4.807457  -0.270360  -0.211927
H  -3.927333   0.642022  -0.652246
H  -4.086704   1.214808   1.113323
C  -1.388837   0.195776  -0.064110
H  -2.706704  -1.332018  -0.870041
H  -2.697364  -1.240095   0.897024
C  -0.149646  -0.690673   0.062463
H  -1.388622   0.838384   0.768003
H  -1.359311   0.824603  -0.964413
H  -0.227689  -1.492529   1.056418
H   0.786953  -0.068263   0.051348
H  -0.157412  -1.257961  -0.701553
