butane_opt
 OpenBabel08242015423D

 14 13  0  0  0  0  0  0  0  0999 V2000
   -3.9266    0.2517    0.0681 C   0  0  0  0  0  0  0  0  0  0  0  0
   -2.7186   -0.5904   -0.0083 C   0  0  0  0  0  0  0  0  0  0  0  0
   -4.8012   -0.3659    0.2176 H   0  0  0  0  0  0  0  0  0  0  0  0
   -3.9878    1.0075   -0.9293 H   0  0  0  0  0  0  0  0  0  0  0  0
   -3.7579    0.7638    0.8103 H   0  0  0  0  0  0  0  0  0  0  0  0
   -1.4239    0.1902   -0.0230 C   0  0  0  0  0  0  0  0  0  0  0  0
   -2.8263   -1.3306   -0.9691 H   0  0  0  0  0  0  0  0  0  0  0  0
   -2.6414   -1.0806    0.7706 H   0  0  0  0  0  0  0  0  0  0  0  0
   -0.1517   -0.7162    0.0714 C   0  0  0  0  0  0  0  0  0  0  0  0
   -1.4842    0.8790    0.8242 H   0  0  0  0  0  0  0  0  0  0  0  0
   -1.3260    0.7815   -0.9121 H   0  0  0  0  0  0  0  0  0  0  0  0
   -0.1952   -1.3222    0.9806 H   0  0  0  0  0  0  0  0  0  0  0  0
    0.7775   -0.1042    0.0462 H   0  0  0  0  0  0  0  0  0  0  0  0
   -0.1336   -1.3155   -0.7227 H   0  0  0  0  0  0  0  0  0  0  0  0
  1  3  1  0  0  0  0
  1  5  1  0  0  0  0
  2  1  1  0  0  0  0
  2  8  1  0  0  0  0
  4  1  1  0  0  0  0
  6  2  1  0  0  0  0
  6  9  1  0  0  0  0
  6 10  1  0  0  0  0
  7  2  1  0  0  0  0
  9 12  1  0  0  0  0
 11  6  1  0  0  0  0
 13  9  1  0  0  0  0
 14  9  1  0  0  0  0
M  END
$$$$
