14
butane_opt
C  -3.923144   0.245812  -0.028824
C  -2.688284  -0.601180   0.082618
H  -4.922138  -0.423668  -0.053331
H  -3.885810   0.869964  -0.956648
H  -3.989746   0.870642   0.832848
C  -1.426437   0.220515   0.066786
H  -2.646121  -1.208126  -0.760025
H  -2.734837  -1.223914   0.991561
C  -0.174335  -0.715916   0.004102
H  -1.354970   0.943330   0.963335
H  -1.402275   0.809433  -0.804078
H  -0.004218  -1.360128   0.854037
H   0.736352  -0.156809  -0.237335
H  -0.250057  -1.399696  -0.892685
