14
butane_opt
C  -3.958462   0.273172  -0.012136
C  -2.708273  -0.621604   0.057394
H  -4.841823  -0.303119   0.146696
H  -3.995818   0.993599  -0.980789
H  -3.932584   0.847241   0.785332
C  -1.390014   0.166610   0.052632
H  -2.714885  -1.284249  -0.762866
H  -2.738756  -1.259334   0.954802
C  -0.151360  -0.687569   0.002227
H  -1.372837   0.883327   0.920617
H  -1.404272   0.816394  -0.849051
H  -0.143715  -1.225548   0.862639
H   0.755524  -0.073890   0.029536
H  -0.146385  -1.428442  -0.887434
