butane_opt
 OpenBabel08242015423D

 14 13  0  0  0  0  0  0  0  0999 V2000
   -3.9211    0.2582    0.0723 C   0  0  0  0  0  0  0  0  0  0  0  0
   -2.6889   -0.6161    0.0071 C   0  0  0  0  0  0  0  0  0  0  0  0
   -4.9194   -0.3977    0.0484 H   0  0  0  0  0  0  0  0  0  0  0  0
   -3.9296    0.8436   -0.7771 H   0  0  0  0  0  0  0  0  0  0  0  0
   -3.9030    0.9943    0.9565 H   0  0  0  0  0  0  0  0  0  0  0  0
   -1.4213    0.2059   -0.0683 C   0  0  0  0  0  0  0  0  0  0  0  0
   -2.7727   -1.3356   -0.8833 H   0  0  0  0  0  0  0  0  0  0  0  0
   -2.6322   -1.1999    0.8220 H   0  0  0  0  0  0  0  0  0  0  0  0
   -0.1748   -0.6992    0.0975 C   0  0  0  0  0  0  0  0  0  0  0  0
   -1.3978    0.7820    0.7022 H   0  0  0  0  0  0  0  0  0  0  0  0
   -1.3990    0.9045   -1.0078 H   0  0  0  0  0  0  0  0  0  0  0  0
   -0.2691   -1.2283    0.9410 H   0  0  0  0  0  0  0  0  0  0  0  0
    0.7022   -0.1610    0.1928 H   0  0  0  0  0  0  0  0  0  0  0  0
   -0.0191   -1.4798   -0.8630 H   0  0  0  0  0  0  0  0  0  0  0  0
  1  5  1  0  0  0  0
  2  1  1  0  0  0  0
  2  8  1  0  0  0  0
  3  1  1  0  0  0  0
  4  1  1  0  0  0  0
  6  2  1  0  0  0  0
  6  9  1  0  0  0  0
  6 10  1  0  0  0  0
  7  2  1  0  0  0  0
  9 13  1  0  0  0  0
  9 12  1  0  0  0  0
 11  6  1  0  0  0  0
 14  9  1  0  0  0  0
M  END
$$$$
