14
butane_opt
C  -3.947086   0.271303  -0.010382
C  -2.698274  -0.632307   0.071248
H  -4.788789  -0.204095  -0.026168
H  -3.950762   0.911141  -0.969656
H  -4.131765   0.934359   0.833397
C  -1.395311   0.176048   0.071083
H  -2.659256  -1.368055  -0.824945
H  -2.836263  -1.225707   0.935875
C  -0.159784  -0.679863  -0.009269
H  -1.251211   0.867201   0.893597
H  -1.398864   0.791190  -0.807429
H  -0.114055  -1.421120   0.972180
H   0.771077  -0.084230  -0.191393
H  -0.256524  -1.282895  -0.823944
