14
butane_opt
C  -3.921109   0.258238   0.072297
C  -2.688904  -0.616102   0.007112
H  -4.919432  -0.397667   0.048370
H  -3.929604   0.843605  -0.777120
H  -3.902989   0.994327   0.956515
C  -1.421302   0.205877  -0.068310
H  -2.772742  -1.335622  -0.883284
H  -2.632232  -1.199868   0.822001
C  -0.174833  -0.699182   0.097517
H  -1.397818   0.782045   0.702228
H  -1.399018   0.904517  -1.007805
H  -0.269093  -1.228343   0.941004
H   0.702248  -0.161015   0.192758
H  -0.019071  -1.479765  -0.862980
