butane_opt
 OpenBabel08242015423D

 14 13  0  0  0  0  0  0  0  0999 V2000
   -3.9153    0.2498    0.0676 C   0  0  0  0  0  0  0  0  0  0  0  0
   -2.7200   -0.5871   -0.0268 C   0  0  0  0  0  0  0  0  0  0  0  0
   -4.8344   -0.3607    0.2919 H   0  0  0  0  0  0  0  0  0  0  0  0
   -4.0369    0.9748   -0.8901 H   0  0  0  0  0  0  0  0  0  0  0  0
   -3.7974    0.7772    0.8174 H   0  0  0  0  0  0  0  0  0  0  0  0
   -1.4247    0.1745   -0.0256 C   0  0  0  0  0  0  0  0  0  0  0  0
   -2.7619   -1.3505   -0.9235 H   0  0  0  0  0  0  0  0  0  0  0  0
   -2.6308   -1.0677    0.7745 H   0  0  0  0  0  0  0  0  0  0  0  0
   -0.1495   -0.7064    0.0891 C   0  0  0  0  0  0  0  0  0  0  0  0
   -1.3977    0.8697    0.7933 H   0  0  0  0  0  0  0  0  0  0  0  0
   -1.4252    0.8689   -0.9306 H   0  0  0  0  0  0  0  0  0  0  0  0
   -0.2467   -1.2997    0.9840 H   0  0  0  0  0  0  0  0  0  0  0  0
    0.7226   -0.1215    0.0319 H   0  0  0  0  0  0  0  0  0  0  0  0
   -0.0920   -1.3475   -0.7763 H   0  0  0  0  0  0  0  0  0  0  0  0
  1  3  1  0  0  0  0
  1  5  1  0  0  0  0
  2  6  1  0  0  0  0
  2  1  1  0  0  0  0
  2  8  1  0  0  0  0
  4  1  1  0  0  0  0
  6  9  1  0  0  0  0
  6 10  1  0  0  0  0
  7  2  1  0  0  0  0
  9 12  1  0  0  0  0
 11  6  1  0  0  0  0
 13  9  1  0  0  0  0
 14  9  1  0  0  0  0
M  END
$$$$
