14
butane_opt
C  -3.945292   0.283229  -0.046501
C  -2.692821  -0.637157   0.100427
H  -4.817828  -0.283329  -0.024468
H  -3.965231   0.952137  -0.931059
H  -4.069407   0.915908   0.774189
C  -1.400538   0.164921   0.086469
H  -2.520728  -1.365517  -0.779102
H  -2.755079  -1.287509   0.997884
C  -0.179626  -0.662696  -0.023151
H  -1.330195   0.824222   0.950987
H  -1.415092   0.707290  -0.759046
H   0.046617  -1.315645   0.858629
H   0.744822  -0.090797  -0.189466
H  -0.331192  -1.286067  -0.851101
