butane_opt
 OpenBabel08242015423D

 14 13  0  0  0  0  0  0  0  0999 V2000
   -3.9449    0.2526    0.0477 C   0  0  0  0  0  0  0  0  0  0  0  0
   -2.7129   -0.5984    0.0204 C   0  0  0  0  0  0  0  0  0  0  0  0
   -4.8973   -0.3664    0.0991 H   0  0  0  0  0  0  0  0  0  0  0  0
   -3.9792    0.9017   -0.8806 H   0  0  0  0  0  0  0  0  0  0  0  0
   -3.9287    0.9083    0.9132 H   0  0  0  0  0  0  0  0  0  0  0  0
   -1.4040    0.1925   -0.0312 C   0  0  0  0  0  0  0  0  0  0  0  0
   -2.7754   -1.3280   -0.8650 H   0  0  0  0  0  0  0  0  0  0  0  0
   -2.6649   -1.1660    0.8760 H   0  0  0  0  0  0  0  0  0  0  0  0
   -0.1540   -0.7066    0.0614 C   0  0  0  0  0  0  0  0  0  0  0  0
   -1.4301    0.8543    0.8203 H   0  0  0  0  0  0  0  0  0  0  0  0
   -1.3397    0.8482   -0.9644 H   0  0  0  0  0  0  0  0  0  0  0  0
   -0.1306   -1.2895    0.9313 H   0  0  0  0  0  0  0  0  0  0  0  0
    0.7467   -0.1022    0.1543 H   0  0  0  0  0  0  0  0  0  0  0  0
   -0.0332   -1.4191   -0.8337 H   0  0  0  0  0  0  0  0  0  0  0  0
  1  3  1  0  0  0  0
  1  5  1  0  0  0  0
  2  1  1  0  0  0  0
  2  8  1  0  0  0  0
  4  1  1  0  0  0  0
  6  2  1  0  0  0  0
  6  9  1  0  0  0  0
  6 10  1  0  0  0  0
  7  2  1  0  0  0  0
  9 13  1  0  0  0  0
  9 12  1  0  0  0  0
 11  6  1  0  0  0  0
 14  9  1  0  0  0  0
M  END
$$$$
