14
butane_opt
C  -3.965814   0.276173  -0.012018
C  -2.692322  -0.628009   0.051300
H  -4.849940  -0.295745   0.095468
H  -4.002538   1.034858  -1.042499
H  -4.014561   0.843925   0.785795
C  -1.409640   0.154027   0.078888
H  -2.655560  -1.331512  -0.769779
H  -2.772925  -1.222945   0.945785
C  -0.153401  -0.680971  -0.001183
H  -1.334641   0.872907   0.957911
H  -1.355351   0.836429  -0.824158
H  -0.014991  -1.284493   0.898420
H   0.859376  -0.013897  -0.165233
H  -0.242442  -1.347524  -0.858570
