14
butane_opt
C  -3.926447   0.247395   0.067658
C  -2.686017  -0.596361  -0.000679
H  -4.863683  -0.401369   0.096427
H  -3.938835   0.766465  -0.752541
H  -3.929751   0.952232   1.010198
C  -1.423306   0.201650  -0.069574
H  -2.764819  -1.232272  -0.841545
H  -2.677061  -1.199269   0.841853
C  -0.174006  -0.709477   0.073281
H  -1.431688   0.862531   0.747892
H  -1.396473   0.908064  -0.985154
H  -0.291366  -1.303586   0.952392
H   0.712731  -0.121017   0.297825
H   0.083089  -1.439354  -0.767335
