butane_opt
 OpenBabel08242015423D

 14 13  0  0  0  0  0  0  0  0999 V2000
   -3.9315    0.2447    0.0602 C   0  0  0  0  0  0  0  0  0  0  0  0
   -2.6907   -0.5923   -0.0476 C   0  0  0  0  0  0  0  0  0  0  0  0
   -4.8768   -0.3749    0.1117 H   0  0  0  0  0  0  0  0  0  0  0  0
   -3.9431    0.7885   -0.7869 H   0  0  0  0  0  0  0  0  0  0  0  0
   -3.8818    0.9680    0.9888 H   0  0  0  0  0  0  0  0  0  0  0  0
   -1.4226    0.1951   -0.0090 C   0  0  0  0  0  0  0  0  0  0  0  0
   -2.7676   -1.1966   -0.8691 H   0  0  0  0  0  0  0  0  0  0  0  0
   -2.7072   -1.2068    0.8010 H   0  0  0  0  0  0  0  0  0  0  0  0
   -0.1532   -0.7148    0.0792 C   0  0  0  0  0  0  0  0  0  0  0  0
   -1.4725    0.8965    0.8299 H   0  0  0  0  0  0  0  0  0  0  0  0
   -1.4322    0.8427   -0.8831 H   0  0  0  0  0  0  0  0  0  0  0  0
   -0.0622   -1.5292    1.1251 H   0  0  0  0  0  0  0  0  0  0  0  0
    0.7640   -0.0549   -0.2007 H   0  0  0  0  0  0  0  0  0  0  0  0
   -0.2639   -1.2021   -0.6400 H   0  0  0  0  0  0  0  0  0  0  0  0
  1  3  1  0  0  0  0
  1  5  1  0  0  0  0
  2  6  1  0  0  0  0
  2  1  1  0  0  0  0
  2  8  1  0  0  0  0
  4  1  1  0  0  0  0
  6  9  1  0  0  0  0
  6 10  1  0  0  0  0
  7  2  1  0  0  0  0
  9 12  1  0  0  0  0
 11  6  1  0  0  0  0
 13  9  1  0  0  0  0
 14  9  1  0  0  0  0
M  END
$$$$
