butane_opt
 OpenBabel08242015423D

 14 13  0  0  0  0  0  0  0  0999 V2000
   -3.9490    0.2859   -0.0339 C   0  0  0  0  0  0  0  0  0  0  0  0
   -2.6758   -0.6225    0.0720 C   0  0  0  0  0  0  0  0  0  0  0  0
   -4.8608   -0.3024   -0.0299 H   0  0  0  0  0  0  0  0  0  0  0  0
   -3.8917    0.8982   -0.8861 H   0  0  0  0  0  0  0  0  0  0  0  0
   -4.0616    0.9464    0.8011 H   0  0  0  0  0  0  0  0  0  0  0  0
   -1.3896    0.1376    0.0740 C   0  0  0  0  0  0  0  0  0  0  0  0
   -2.6254   -1.1999   -0.7181 H   0  0  0  0  0  0  0  0  0  0  0  0
   -2.7924   -1.3682    1.0592 H   0  0  0  0  0  0  0  0  0  0  0  0
   -0.1866   -0.6687   -0.0158 C   0  0  0  0  0  0  0  0  0  0  0  0
   -1.3501    0.9156    1.0308 H   0  0  0  0  0  0  0  0  0  0  0  0
   -1.3747    0.7277   -0.7970 H   0  0  0  0  0  0  0  0  0  0  0  0
   -0.0801   -1.3158    0.8800 H   0  0  0  0  0  0  0  0  0  0  0  0
    0.7456   -0.0630   -0.1738 H   0  0  0  0  0  0  0  0  0  0  0  0
   -0.3296   -1.2937   -0.8732 H   0  0  0  0  0  0  0  0  0  0  0  0
  1  3  1  0  0  0  0
  1  2  1  0  0  0  0
  1  5  1  0  0  0  0
  2  6  1  0  0  0  0
  2  8  1  0  0  0  0
  4  1  1  0  0  0  0
  6 10  1  0  0  0  0
  7  2  1  0  0  0  0
  9  6  1  0  0  0  0
  9 12  1  0  0  0  0
 11  6  1  0  0  0  0
 13  9  1  0  0  0  0
 14  9  1  0  0  0  0
M  END
$$$$
