14
butane_opt
C  -3.941245   0.232162   0.047366
C  -2.703856  -0.596813  -0.022168
H  -4.832460  -0.298240   0.096038
H  -3.966627   0.803380  -0.811030
H  -3.921701   0.975335   0.955790
C  -1.404924   0.219324   0.012185
H  -2.790072  -1.303782  -0.953359
H  -2.795445  -1.128359   0.829543
C  -0.146790  -0.717481   0.071262
H  -1.419106   0.802666   0.783981
H  -1.436958   0.890495  -0.911737
H   0.017906  -1.468995   1.075508
H   0.696075  -0.212777  -0.242223
H  -0.200765  -1.182080  -0.652580
