butane_opt
 OpenBabel08242015423D

 14 13  0  0  0  0  0  0  0  0999 V2000
   -3.9264    0.2474    0.0677 C   0  0  0  0  0  0  0  0  0  0  0  0
   -2.6860   -0.5964   -0.0007 C   0  0  0  0  0  0  0  0  0  0  0  0
   -4.8637   -0.4014    0.0964 H   0  0  0  0  0  0  0  0  0  0  0  0
   -3.9388    0.7665   -0.7525 H   0  0  0  0  0  0  0  0  0  0  0  0
   -3.9298    0.9522    1.0102 H   0  0  0  0  0  0  0  0  0  0  0  0
   -1.4233    0.2016   -0.0696 C   0  0  0  0  0  0  0  0  0  0  0  0
   -2.7648   -1.2323   -0.8415 H   0  0  0  0  0  0  0  0  0  0  0  0
   -2.6771   -1.1993    0.8419 H   0  0  0  0  0  0  0  0  0  0  0  0
   -0.1740   -0.7095    0.0733 C   0  0  0  0  0  0  0  0  0  0  0  0
   -1.4317    0.8625    0.7479 H   0  0  0  0  0  0  0  0  0  0  0  0
   -1.3965    0.9081   -0.9852 H   0  0  0  0  0  0  0  0  0  0  0  0
   -0.2914   -1.3036    0.9524 H   0  0  0  0  0  0  0  0  0  0  0  0
    0.7127   -0.1210    0.2978 H   0  0  0  0  0  0  0  0  0  0  0  0
    0.0831   -1.4394   -0.7673 H   0  0  0  0  0  0  0  0  0  0  0  0
  1  3  1  0  0  0  0
  1  5  1  0  0  0  0
  2  1  1  0  0  0  0
  2  8  1  0  0  0  0
  4  1  1  0  0  0  0
  6  2  1  0  0  0  0
  6  9  1  0  0  0  0
  6 10  1  0  0  0  0
  7  2  1  0  0  0  0
  9 13  1  0  0  0  0
  9 12  1  0  0  0  0
 11  6  1  0  0  0  0
 14  9  1  0  0  0  0
M  END
$$$$
