14
butane_opt
C  -3.915005   0.250126  -0.031239
C  -2.706348  -0.588687   0.066298
H  -4.913011  -0.402991   0.023048
H  -3.907421   0.928369  -0.971583
H  -3.975149   0.819545   0.726411
C  -1.404269   0.204157   0.084254
H  -2.658813  -1.142991  -0.716160
H  -2.823175  -1.264428   1.034495
C  -0.165507  -0.717312  -0.019177
H  -1.444981   0.947577   1.025353
H  -1.454342   0.715553  -0.682869
H  -0.035622  -1.386437   0.929728
H   0.793890  -0.102673  -0.248938
H  -0.298525  -1.372464  -0.893284
