14
butane_opt
C  -3.934500   0.261012  -0.000824
C  -2.698470  -0.597760   0.071057
H  -4.947274  -0.407628   0.086802
H  -3.878922   0.893760  -0.911426
H  -3.950617   0.816646   0.772434
C  -1.422451   0.190272   0.007904
H  -2.751086  -1.197911  -0.691933
H  -2.718328  -1.299980   1.039192
C  -0.150508  -0.707289   0.002309
H  -1.430284   0.955936   0.942912
H  -1.374193   0.817454  -0.897428
H  -0.258532  -1.120447   0.786222
H   0.736333  -0.119357   0.249822
H   0.022538  -1.586081  -0.941083
