14
butane_opt
C  -3.988066   0.286139  -0.014494
C  -2.690588  -0.636539   0.060387
H  -4.890066  -0.286676   0.096002
H  -4.051321   1.036613  -1.039997
H  -3.902326   0.837991   0.776165
C  -1.380038   0.160025   0.067952
H  -2.592800  -1.300497  -0.801458
H  -2.775843  -1.375059   1.031439
C  -0.149059  -0.666985  -0.010946
H  -1.336874   0.897590   0.941989
H  -1.459201   0.722719  -0.782874
H  -0.125417  -1.264404   0.885266
H   0.749552  -0.043070  -0.009882
H  -0.159978  -1.393525  -0.904196
