butane_opt
 OpenBabel08242015423D

 14 13  0  0  0  0  0  0  0  0999 V2000
   -3.9407    0.2537    0.0091 C   0  0  0  0  0  0  0  0  0  0  0  0
   -2.7014   -0.5888    0.0431 C   0  0  0  0  0  0  0  0  0  0  0  0
   -4.8885   -0.3902    0.2231 H   0  0  0  0  0  0  0  0  0  0  0  0
   -3.9838    1.0859   -1.0493 H   0  0  0  0  0  0  0  0  0  0  0  0
   -3.8670    0.7839    0.7595 H   0  0  0  0  0  0  0  0  0  0  0  0
   -1.4104    0.1725    0.0319 C   0  0  0  0  0  0  0  0  0  0  0  0
   -2.7683   -1.3642   -0.8586 H   0  0  0  0  0  0  0  0  0  0  0  0
   -2.5831   -1.2234    0.8793 H   0  0  0  0  0  0  0  0  0  0  0  0
   -0.1611   -0.6863    0.0281 C   0  0  0  0  0  0  0  0  0  0  0  0
   -1.3860    0.9253    0.9271 H   0  0  0  0  0  0  0  0  0  0  0  0
   -1.4041    0.7513   -0.8411 H   0  0  0  0  0  0  0  0  0  0  0  0
   -0.1609   -1.2748    0.8870 H   0  0  0  0  0  0  0  0  0  0  0  0
    0.7155   -0.1367   -0.0150 H   0  0  0  0  0  0  0  0  0  0  0  0
   -0.1280   -1.4351   -0.8526 H   0  0  0  0  0  0  0  0  0  0  0  0
  1  2  1  0  0  0  0
  1  3  1  0  0  0  0
  1  5  1  0  0  0  0
  2  8  1  0  0  0  0
  4  1  1  0  0  0  0
  6  2  1  0  0  0  0
  6 10  1  0  0  0  0
  7  2  1  0  0  0  0
  9  6  1  0  0  0  0
  9 12  1  0  0  0  0
 11  6  1  0  0  0  0
 13  9  1  0  0  0  0
 14  9  1  0  0  0  0
M  END
$$$$
