butane_opt
 OpenBabel08242015423D

 14 13  0  0  0  0  0  0  0  0999 V2000
   -3.9491    0.2832    0.0451 C   0  0  0  0  0  0  0  0  0  0  0  0
   -2.6995   -0.6430   -0.0075 C   0  0  0  0  0  0  0  0  0  0  0  0
   -4.7976   -0.2392    0.2652 H   0  0  0  0  0  0  0  0  0  0  0  0
   -4.0714    1.0470   -0.9372 H   0  0  0  0  0  0  0  0  0  0  0  0
   -3.8415    0.8237    0.8619 H   0  0  0  0  0  0  0  0  0  0  0  0
   -1.3872    0.1563   -0.0041 C   0  0  0  0  0  0  0  0  0  0  0  0
   -2.6319   -1.3452   -0.8878 H   0  0  0  0  0  0  0  0  0  0  0  0
   -2.6751   -1.1987    0.8019 H   0  0  0  0  0  0  0  0  0  0  0  0
   -0.1892   -0.6706    0.0647 C   0  0  0  0  0  0  0  0  0  0  0  0
   -1.4008    0.8188    0.8581 H   0  0  0  0  0  0  0  0  0  0  0  0
   -1.2872    0.7918   -0.9235 H   0  0  0  0  0  0  0  0  0  0  0  0
   -0.0871   -1.2483    0.9527 H   0  0  0  0  0  0  0  0  0  0  0  0
    0.6785   -0.0810    0.0485 H   0  0  0  0  0  0  0  0  0  0  0  0
   -0.2256   -1.3377   -0.7854 H   0  0  0  0  0  0  0  0  0  0  0  0
  1  3  1  0  0  0  0
  1  5  1  0  0  0  0
  2  6  1  0  0  0  0
  2  1  1  0  0  0  0
  2  8  1  0  0  0  0
  4  1  1  0  0  0  0
  6  9  1  0  0  0  0
  6 10  1  0  0  0  0
  7  2  1  0  0  0  0
  9 12  1  0  0  0  0
 11  6  1  0  0  0  0
 13  9  1  0  0  0  0
 14  9  1  0  0  0  0
M  END
$$$$
