butane_opt
 OpenBabel08242015423D

 14 13  0  0  0  0  0  0  0  0999 V2000
   -3.9345    0.2610   -0.0008 C   0  0  0  0  0  0  0  0  0  0  0  0
   -2.6985   -0.5978    0.0711 C   0  0  0  0  0  0  0  0  0  0  0  0
   -4.9473   -0.4076    0.0868 H   0  0  0  0  0  0  0  0  0  0  0  0
   -3.8789    0.8938   -0.9114 H   0  0  0  0  0  0  0  0  0  0  0  0
   -3.9506    0.8166    0.7724 H   0  0  0  0  0  0  0  0  0  0  0  0
   -1.4225    0.1903    0.0079 C   0  0  0  0  0  0  0  0  0  0  0  0
   -2.7511   -1.1979   -0.6919 H   0  0  0  0  0  0  0  0  0  0  0  0
   -2.7183   -1.3000    1.0392 H   0  0  0  0  0  0  0  0  0  0  0  0
   -0.1505   -0.7073    0.0023 C   0  0  0  0  0  0  0  0  0  0  0  0
   -1.4303    0.9559    0.9429 H   0  0  0  0  0  0  0  0  0  0  0  0
   -1.3742    0.8175   -0.8974 H   0  0  0  0  0  0  0  0  0  0  0  0
   -0.2585   -1.1204    0.7862 H   0  0  0  0  0  0  0  0  0  0  0  0
    0.7363   -0.1194    0.2498 H   0  0  0  0  0  0  0  0  0  0  0  0
    0.0225   -1.5861   -0.9411 H   0  0  0  0  0  0  0  0  0  0  0  0
  1  2  1  0  0  0  0
  1  3  1  0  0  0  0
  1  5  1  0  0  0  0
  2  8  1  0  0  0  0
  4  1  1  0  0  0  0
  6  2  1  0  0  0  0
  6 10  1  0  0  0  0
  7  2  1  0  0  0  0
  9  6  1  0  0  0  0
  9 13  1  0  0  0  0
  9 12  1  0  0  0  0
 11  6  1  0  0  0  0
 14  9  1  0  0  0  0
M  END
$$$$
