butane_opt
 OpenBabel08242015423D

 14 13  0  0  0  0  0  0  0  0999 V2000
   -3.9323    0.2684    0.0335 C   0  0  0  0  0  0  0  0  0  0  0  0
   -2.7029   -0.6236    0.0308 C   0  0  0  0  0  0  0  0  0  0  0  0
   -4.8047   -0.2767   -0.1005 H   0  0  0  0  0  0  0  0  0  0  0  0
   -3.9197    0.7657   -0.7721 H   0  0  0  0  0  0  0  0  0  0  0  0
   -3.9685    1.0463    0.9587 H   0  0  0  0  0  0  0  0  0  0  0  0
   -1.4024    0.1801   -0.0092 C   0  0  0  0  0  0  0  0  0  0  0  0
   -2.7315   -1.3002   -0.8528 H   0  0  0  0  0  0  0  0  0  0  0  0
   -2.6785   -1.2384    0.9093 H   0  0  0  0  0  0  0  0  0  0  0  0
   -0.1762   -0.6885    0.0510 C   0  0  0  0  0  0  0  0  0  0  0  0
   -1.4184    0.7964    0.8052 H   0  0  0  0  0  0  0  0  0  0  0  0
   -1.3787    0.8620   -0.9348 H   0  0  0  0  0  0  0  0  0  0  0  0
   -0.1287   -1.3509    0.9865 H   0  0  0  0  0  0  0  0  0  0  0  0
    0.7511   -0.0858   -0.0501 H   0  0  0  0  0  0  0  0  0  0  0  0
   -0.1902   -1.3231   -0.7708 H   0  0  0  0  0  0  0  0  0  0  0  0
  1  5  1  0  0  0  0
  2  1  1  0  0  0  0
  2  8  1  0  0  0  0
  3  1  1  0  0  0  0
  4  1  1  0  0  0  0
  6  2  1  0  0  0  0
  6  9  1  0  0  0  0
  6 10  1  0  0  0  0
  7  2  1  0  0  0  0
  9 12  1  0  0  0  0
 11  6  1  0  0  0  0
 13  9  1  0  0  0  0
 14  9  1  0  0  0  0
M  END
$$$$
