butane_opt
 OpenBabel08242015423D

 14 13  0  0  0  0  0  0  0  0999 V2000
   -3.9446    0.2906    0.0085 C   0  0  0  0  0  0  0  0  0  0  0  0
   -2.6956   -0.6494    0.0504 C   0  0  0  0  0  0  0  0  0  0  0  0
   -4.8400   -0.3044    0.0717 H   0  0  0  0  0  0  0  0  0  0  0  0
   -4.0210    0.9513   -0.9567 H   0  0  0  0  0  0  0  0  0  0  0  0
   -3.8439    0.9605    0.9022 H   0  0  0  0  0  0  0  0  0  0  0  0
   -1.3850    0.1662    0.0085 C   0  0  0  0  0  0  0  0  0  0  0  0
   -2.7105   -1.2436   -0.7287 H   0  0  0  0  0  0  0  0  0  0  0  0
   -2.6912   -1.3964    0.9828 H   0  0  0  0  0  0  0  0  0  0  0  0
   -0.1860   -0.6725    0.0238 C   0  0  0  0  0  0  0  0  0  0  0  0
   -1.3749    0.8280    0.8539 H   0  0  0  0  0  0  0  0  0  0  0  0
   -1.4124    0.8472   -0.9162 H   0  0  0  0  0  0  0  0  0  0  0  0
   -0.2794   -1.1109    0.7987 H   0  0  0  0  0  0  0  0  0  0  0  0
    0.7097   -0.0968    0.2525 H   0  0  0  0  0  0  0  0  0  0  0  0
   -0.0409   -1.5157   -0.9418 H   0  0  0  0  0  0  0  0  0  0  0  0
  1  2  1  0  0  0  0
  1  3  1  0  0  0  0
  1  5  1  0  0  0  0
  2  8  1  0  0  0  0
  4  1  1  0  0  0  0
  6  9  1  0  0  0  0
  6  2  1  0  0  0  0
  6 10  1  0  0  0  0
  7  2  1  0  0  0  0
  9 13  1  0  0  0  0
  9 12  1  0  0  0  0
 11  6  1  0  0  0  0
 14  9  1  0  0  0  0
M  END
$$$$
