butane_opt
 OpenBabel08242015423D

 14 13  0  0  0  0  0  0  0  0999 V2000
   -3.9506    0.2646    0.0851 C   0  0  0  0  0  0  0  0  0  0  0  0
   -2.7007   -0.6141   -0.0075 C   0  0  0  0  0  0  0  0  0  0  0  0
   -4.8277   -0.2789    0.0424 H   0  0  0  0  0  0  0  0  0  0  0  0
   -3.9413    0.8285   -0.7860 H   0  0  0  0  0  0  0  0  0  0  0  0
   -3.9431    0.9455    0.9202 H   0  0  0  0  0  0  0  0  0  0  0  0
   -1.3950    0.1812   -0.0479 C   0  0  0  0  0  0  0  0  0  0  0  0
   -2.7686   -1.3804   -0.9491 H   0  0  0  0  0  0  0  0  0  0  0  0
   -2.6143   -1.1467    0.8143 H   0  0  0  0  0  0  0  0  0  0  0  0
   -0.1660   -0.6948    0.0746 C   0  0  0  0  0  0  0  0  0  0  0  0
   -1.5139    0.7899    0.7158 H   0  0  0  0  0  0  0  0  0  0  0  0
   -1.3509    0.8623   -1.0267 H   0  0  0  0  0  0  0  0  0  0  0  0
   -0.2400   -1.3454    1.0458 H   0  0  0  0  0  0  0  0  0  0  0  0
    0.8108   -0.0633    0.1670 H   0  0  0  0  0  0  0  0  0  0  0  0
   -0.0980   -1.3190   -0.7478 H   0  0  0  0  0  0  0  0  0  0  0  0
  1  5  1  0  0  0  0
  2  1  1  0  0  0  0
  2  8  1  0  0  0  0
  3  1  1  0  0  0  0
  4  1  1  0  0  0  0
  6  2  1  0  0  0  0
  6  9  1  0  0  0  0
  6 10  1  0  0  0  0
  7  2  1  0  0  0  0
  9 13  1  0  0  0  0
  9 12  1  0  0  0  0
 11  6  1  0  0  0  0
 14  9  1  0  0  0  0
M  END
$$$$
