14
butane_opt
C  -3.917642   0.252028  -0.007942
C  -2.706293  -0.579948   0.078544
H  -4.926498  -0.379877  -0.151089
H  -3.909883   0.827682  -0.858035
H  -3.993889   0.936687   0.870845
C  -1.405244   0.189192   0.026957
H  -2.655445  -1.277877  -0.755734
H  -2.694358  -1.282090   0.998034
C  -0.182797  -0.706319   0.021002
H  -1.358635   0.840205   0.893155
H  -1.384399   0.865716  -0.862602
H  -0.056730  -1.298872   0.886998
H   0.754481  -0.093429  -0.068889
H  -0.241914  -1.483600  -0.947270
