14
butane_opt
C  -3.976376   0.246401   0.002546
C  -2.696983  -0.598847   0.077825
H  -4.920191  -0.390348   0.004793
H  -3.913198   0.885564  -0.928990
H  -3.962386   0.904504   0.858028
C  -1.399521   0.203538  -0.000612
H  -2.711168  -1.238784  -0.725572
H  -2.813322  -1.180716   0.976247
C  -0.134370  -0.710870   0.014760
H  -1.343566   0.922665   0.871713
H  -1.424260   0.807098  -0.838552
H  -0.172034  -1.213358   0.888932
H   0.727887  -0.152928   0.120996
H   0.004538  -1.520746  -0.937629
