butane_opt
 OpenBabel08242015423D

 14 13  0  0  0  0  0  0  0  0999 V2000
   -3.9764    0.2464    0.0025 C   0  0  0  0  0  0  0  0  0  0  0  0
   -2.6970   -0.5988    0.0778 C   0  0  0  0  0  0  0  0  0  0  0  0
   -4.9202   -0.3903    0.0048 H   0  0  0  0  0  0  0  0  0  0  0  0
   -3.9132    0.8856   -0.9290 H   0  0  0  0  0  0  0  0  0  0  0  0
   -3.9624    0.9045    0.8580 H   0  0  0  0  0  0  0  0  0  0  0  0
   -1.3995    0.2035   -0.0006 C   0  0  0  0  0  0  0  0  0  0  0  0
   -2.7112   -1.2388   -0.7256 H   0  0  0  0  0  0  0  0  0  0  0  0
   -2.8133   -1.1807    0.9762 H   0  0  0  0  0  0  0  0  0  0  0  0
   -0.1344   -0.7109    0.0148 C   0  0  0  0  0  0  0  0  0  0  0  0
   -1.3436    0.9227    0.8717 H   0  0  0  0  0  0  0  0  0  0  0  0
   -1.4243    0.8071   -0.8386 H   0  0  0  0  0  0  0  0  0  0  0  0
   -0.1720   -1.2134    0.8889 H   0  0  0  0  0  0  0  0  0  0  0  0
    0.7279   -0.1529    0.1210 H   0  0  0  0  0  0  0  0  0  0  0  0
    0.0045   -1.5207   -0.9376 H   0  0  0  0  0  0  0  0  0  0  0  0
  1  3  1  0  0  0  0
  1  2  1  0  0  0  0
  1  5  1  0  0  0  0
  2  8  1  0  0  0  0
  4  1  1  0  0  0  0
  6  9  1  0  0  0  0
  6  2  1  0  0  0  0
  6 10  1  0  0  0  0
  7  2  1  0  0  0  0
  9 13  1  0  0  0  0
  9 12  1  0  0  0  0
 11  6  1  0  0  0  0
 14  9  1  0  0  0  0
M  END
$$$$
