14
butane_opt
C  -3.933796   0.281743   0.085695
C  -2.703813  -0.624303  -0.056030
H  -4.816768  -0.318868   0.215355
H  -4.081014   0.974256  -0.809933
H  -3.848616   0.880714   0.912416
C  -1.408868   0.158906  -0.047743
H  -2.731561  -1.345214  -0.909139
H  -2.624390  -1.195063   0.813334
C  -0.176086  -0.682889   0.087458
H  -1.362859   0.858258   0.794417
H  -1.403165   0.764616  -0.883274
H  -0.279372  -1.425566   1.077854
H   0.874319   0.016944   0.078048
H  -0.095028  -1.262895  -0.679093
