14
butane_opt
C  -3.945684   0.268544   0.039436
C  -2.693752  -0.627559   0.010602
H  -4.845224  -0.312995   0.126645
H  -3.978279   0.901543  -0.874888
H  -3.930058   0.939527   0.910329
C  -1.403911   0.186667  -0.011583
H  -2.719075  -1.314448  -0.838436
H  -2.610352  -1.253443   0.903882
C  -0.172007  -0.688415   0.056648
H  -1.413121   0.805878   0.786342
H  -1.359725   0.839675  -0.917494
H  -0.207412  -1.267810   0.934030
H   0.739802  -0.089914   0.120850
H  -0.115652  -1.389874  -0.858258
