butane_opt
 OpenBabel08242015423D

 14 13  0  0  0  0  0  0  0  0999 V2000
   -3.9700    0.2806   -0.0362 C   0  0  0  0  0  0  0  0  0  0  0  0
   -2.6928   -0.6362    0.1116 C   0  0  0  0  0  0  0  0  0  0  0  0
   -4.8763   -0.2764   -0.1075 H   0  0  0  0  0  0  0  0  0  0  0  0
   -3.8722    0.9435   -0.9475 H   0  0  0  0  0  0  0  0  0  0  0  0
   -4.1858    1.0209    0.8296 H   0  0  0  0  0  0  0  0  0  0  0  0
   -1.3948    0.1506    0.0563 C   0  0  0  0  0  0  0  0  0  0  0  0
   -2.7525   -1.3482   -0.7210 H   0  0  0  0  0  0  0  0  0  0  0  0
   -2.7584   -1.2904    1.0192 H   0  0  0  0  0  0  0  0  0  0  0  0
   -0.1325   -0.6664   -0.0140 C   0  0  0  0  0  0  0  0  0  0  0  0
   -1.2768    0.8646    0.9375 H   0  0  0  0  0  0  0  0  0  0  0  0
   -1.4740    0.7605   -0.8258 H   0  0  0  0  0  0  0  0  0  0  0  0
   -0.0895   -1.2396    0.8470 H   0  0  0  0  0  0  0  0  0  0  0  0
    0.7928   -0.0667   -0.0590 H   0  0  0  0  0  0  0  0  0  0  0  0
   -0.2571   -1.3776   -0.9388 H   0  0  0  0  0  0  0  0  0  0  0  0
  1  2  1  0  0  0  0
  1  5  1  0  0  0  0
  2  8  1  0  0  0  0
  3  1  1  0  0  0  0
  4  1  1  0  0  0  0
  6  2  1  0  0  0  0
  6 10  1  0  0  0  0
  7  2  1  0  0  0  0
  9  6  1  0  0  0  0
  9 12  1  0  0  0  0
 11  6  1  0  0  0  0
 13  9  1  0  0  0  0
 14  9  1  0  0  0  0
M  END
$$$$
