14
butane_opt
C  -3.961050   0.284829   0.056791
C  -2.701328  -0.643632   0.012309
H  -4.843798  -0.302636  -0.123015
H  -3.931717   0.724939  -0.742060
H  -4.112189   1.183527   1.069756
C  -1.391553   0.165610  -0.057517
H  -2.813738  -1.350753  -0.858354
H  -2.708334  -1.262920   0.899284
C  -0.143457  -0.670474   0.069726
H  -1.384240   0.896077   0.823734
H  -1.279461   0.802231  -0.915076
H  -0.129484  -1.460157   1.070385
H   0.707862  -0.107661  -0.055360
H  -0.159091  -1.232460  -0.673458
