butane_opt
 OpenBabel08242015423D

 14 13  0  0  0  0  0  0  0  0999 V2000
   -3.9078    0.2478   -0.0294 C   0  0  0  0  0  0  0  0  0  0  0  0
   -2.6996   -0.5929    0.0719 C   0  0  0  0  0  0  0  0  0  0  0  0
   -4.8154   -0.3442   -0.0054 H   0  0  0  0  0  0  0  0  0  0  0  0
   -3.9063    0.9384   -0.9498 H   0  0  0  0  0  0  0  0  0  0  0  0
   -3.9879    0.7753    0.7398 H   0  0  0  0  0  0  0  0  0  0  0  0
   -1.4266    0.1950    0.0993 C   0  0  0  0  0  0  0  0  0  0  0  0
   -2.6488   -1.2878   -0.7606 H   0  0  0  0  0  0  0  0  0  0  0  0
   -2.7984   -1.2438    0.9895 H   0  0  0  0  0  0  0  0  0  0  0  0
   -0.1769   -0.6992   -0.0143 C   0  0  0  0  0  0  0  0  0  0  0  0
   -1.4391    0.9141    0.9487 H   0  0  0  0  0  0  0  0  0  0  0  0
   -1.4892    0.8337   -0.8185 H   0  0  0  0  0  0  0  0  0  0  0  0
    0.0335   -1.3432    0.8880 H   0  0  0  0  0  0  0  0  0  0  0  0
    0.7688   -0.1409   -0.2402 H   0  0  0  0  0  0  0  0  0  0  0  0
   -0.2201   -1.3743   -0.8932 H   0  0  0  0  0  0  0  0  0  0  0  0
  1  3  1  0  0  0  0
  1  2  1  0  0  0  0
  1  5  1  0  0  0  0
  2  6  1  0  0  0  0
  2  8  1  0  0  0  0
  4  1  1  0  0  0  0
  6 10  1  0  0  0  0
  7  2  1  0  0  0  0
  9  6  1  0  0  0  0
  9 12  1  0  0  0  0
 11  6  1  0  0  0  0
 13  9  1  0  0  0  0
 14  9  1  0  0  0  0
M  END
$$$$
