butane_opt
 OpenBabel08242015423D

 14 13  0  0  0  0  0  0  0  0999 V2000
   -3.9338    0.2817    0.0857 C   0  0  0  0  0  0  0  0  0  0  0  0
   -2.7038   -0.6243   -0.0560 C   0  0  0  0  0  0  0  0  0  0  0  0
   -4.8168   -0.3189    0.2154 H   0  0  0  0  0  0  0  0  0  0  0  0
   -4.0810    0.9743   -0.8099 H   0  0  0  0  0  0  0  0  0  0  0  0
   -3.8486    0.8807    0.9124 H   0  0  0  0  0  0  0  0  0  0  0  0
   -1.4089    0.1589   -0.0477 C   0  0  0  0  0  0  0  0  0  0  0  0
   -2.7316   -1.3452   -0.9091 H   0  0  0  0  0  0  0  0  0  0  0  0
   -2.6244   -1.1951    0.8133 H   0  0  0  0  0  0  0  0  0  0  0  0
   -0.1761   -0.6829    0.0875 C   0  0  0  0  0  0  0  0  0  0  0  0
   -1.3629    0.8583    0.7944 H   0  0  0  0  0  0  0  0  0  0  0  0
   -1.4032    0.7646   -0.8833 H   0  0  0  0  0  0  0  0  0  0  0  0
   -0.2794   -1.4256    1.0779 H   0  0  0  0  0  0  0  0  0  0  0  0
    0.8743    0.0169    0.0780 H   0  0  0  0  0  0  0  0  0  0  0  0
   -0.0950   -1.2629   -0.6791 H   0  0  0  0  0  0  0  0  0  0  0  0
  1  3  1  0  0  0  0
  1  5  1  0  0  0  0
  2  6  1  0  0  0  0
  2  1  1  0  0  0  0
  2  8  1  0  0  0  0
  4  1  1  0  0  0  0
  6  9  1  0  0  0  0
  6 10  1  0  0  0  0
  7  2  1  0  0  0  0
  9 12  1  0  0  0  0
 11  6  1  0  0  0  0
 13  9  1  0  0  0  0
 14  9  1  0  0  0  0
M  END
$$$$
