butane_opt
 OpenBabel08242015423D

 14 13  0  0  0  0  0  0  0  0999 V2000
   -3.9491    0.2425    0.0444 C   0  0  0  0  0  0  0  0  0  0  0  0
   -2.7196   -0.6014   -0.0077 C   0  0  0  0  0  0  0  0  0  0  0  0
   -4.8799   -0.3844    0.0094 H   0  0  0  0  0  0  0  0  0  0  0  0
   -3.9937    0.8535   -0.8208 H   0  0  0  0  0  0  0  0  0  0  0  0
   -3.8847    1.0015    0.9629 H   0  0  0  0  0  0  0  0  0  0  0  0
   -1.3935    0.2210    0.0146 C   0  0  0  0  0  0  0  0  0  0  0  0
   -2.7687   -1.3200   -0.9427 H   0  0  0  0  0  0  0  0  0  0  0  0
   -2.6532   -1.1858    0.8693 H   0  0  0  0  0  0  0  0  0  0  0  0
   -0.1598   -0.7216    0.0657 C   0  0  0  0  0  0  0  0  0  0  0  0
   -1.4118    0.8482    0.7925 H   0  0  0  0  0  0  0  0  0  0  0  0
   -1.3200    0.9074   -0.9553 H   0  0  0  0  0  0  0  0  0  0  0  0
   -0.0079   -1.4808    1.0081 H   0  0  0  0  0  0  0  0  0  0  0  0
    0.7377   -0.1787   -0.1841 H   0  0  0  0  0  0  0  0  0  0  0  0
   -0.1592   -1.2248   -0.6921 H   0  0  0  0  0  0  0  0  0  0  0  0
  1  5  1  0  0  0  0
  2  6  1  0  0  0  0
  2  1  1  0  0  0  0
  2  8  1  0  0  0  0
  3  1  1  0  0  0  0
  4  1  1  0  0  0  0
  6  9  1  0  0  0  0
  6 10  1  0  0  0  0
  7  2  1  0  0  0  0
  9 12  1  0  0  0  0
 11  6  1  0  0  0  0
 13  9  1  0  0  0  0
 14  9  1  0  0  0  0
M  END
$$$$
