14
butane_opt
C  -3.940176   0.248672   0.055402
C  -2.714959  -0.601235  -0.021021
H  -4.884406  -0.325967  -0.053017
H  -3.959269   0.786695  -0.797901
H  -3.886368   1.004035   0.993690
C  -1.410822   0.206106   0.002006
H  -2.766867  -1.301505  -0.893081
H  -2.721564  -1.177755   0.876837
C  -0.152154  -0.706723   0.072860
H  -1.358638   0.805791   0.785926
H  -1.331712   0.842380  -0.918913
H   0.012498  -1.501488   1.042968
H   0.669190  -0.198260  -0.218698
H  -0.169368  -1.173346  -0.667119
