butane_opt
 OpenBabel08242015423D

 14 13  0  0  0  0  0  0  0  0999 V2000
   -3.9420    0.2480    0.0655 C   0  0  0  0  0  0  0  0  0  0  0  0
   -2.7093   -0.6072   -0.0151 C   0  0  0  0  0  0  0  0  0  0  0  0
   -4.8700   -0.3522   -0.0451 H   0  0  0  0  0  0  0  0  0  0  0  0
   -4.0139    0.8450   -0.8000 H   0  0  0  0  0  0  0  0  0  0  0  0
   -3.9285    1.0243    1.0000 H   0  0  0  0  0  0  0  0  0  0  0  0
   -1.4151    0.2006   -0.0267 C   0  0  0  0  0  0  0  0  0  0  0  0
   -2.8707   -1.3351   -0.9252 H   0  0  0  0  0  0  0  0  0  0  0  0
   -2.7494   -1.1577    0.7741 H   0  0  0  0  0  0  0  0  0  0  0  0
   -0.1337   -0.7072    0.0839 C   0  0  0  0  0  0  0  0  0  0  0  0
   -1.4084    0.8808    0.8190 H   0  0  0  0  0  0  0  0  0  0  0  0
   -1.4212    0.8128   -0.8964 H   0  0  0  0  0  0  0  0  0  0  0  0
    0.0182   -1.5381    1.0875 H   0  0  0  0  0  0  0  0  0  0  0  0
    0.7404   -0.1142   -0.2015 H   0  0  0  0  0  0  0  0  0  0  0  0
   -0.1219   -1.1433   -0.6391 H   0  0  0  0  0  0  0  0  0  0  0  0
  1  5  1  0  0  0  0
  2  1  1  0  0  0  0
  2  8  1  0  0  0  0
  3  1  1  0  0  0  0
  4  1  1  0  0  0  0
  6  2  1  0  0  0  0
  6  9  1  0  0  0  0
  6 10  1  0  0  0  0
  7  2  1  0  0  0  0
  9 12  1  0  0  0  0
 11  6  1  0  0  0  0
 13  9  1  0  0  0  0
 14  9  1  0  0  0  0
M  END
$$$$
