14
butane_opt
C  -3.956357   0.276536  -0.036108
C  -2.696202  -0.643881   0.073399
H  -4.837623  -0.309960   0.347692
H  -4.034849   1.102732  -1.045078
H  -3.887477   0.718834   0.641449
C  -1.397577   0.183996   0.062787
H  -2.645223  -1.316844  -0.774233
H  -2.710870  -1.273110   0.966385
C  -0.162228  -0.680236  -0.013999
H  -1.352270   1.023333   1.075348
H  -1.432403   0.730125  -0.759858
H  -0.165294  -1.245621   0.834457
H   0.684101  -0.135007   0.049216
H  -0.102522  -1.404672  -0.953727
