14
butane_opt
C  -3.938474   0.270329  -0.007794
C  -2.684129  -0.627910   0.078500
H  -4.800080  -0.322500   0.093000
H  -4.021923   0.980970  -0.951045
H  -3.975691   0.854043   0.785154
C  -1.400444   0.172508   0.011511
H  -2.704002  -1.220344  -0.693893
H  -2.577167  -1.296172   0.972477
C  -0.200365  -0.680986   0.009238
H  -1.366137   0.887610   0.875928
H  -1.380362   0.757303  -0.864734
H  -0.193325  -1.085382   0.786525
H   0.734911  -0.055574   0.269907
H  -0.065453  -1.577864  -0.969157
