14
butane_opt
C  -3.978698   0.265614   0.059290
C  -2.700005  -0.611750  -0.025878
H  -4.894961  -0.283166   0.272850
H  -4.109935   0.980208  -0.917081
H  -3.850761   0.887141   0.881257
C  -1.372945   0.176349  -0.014510
H  -2.798013  -1.362710  -0.955512
H  -2.634569  -1.239708   0.850656
C  -0.157092  -0.684694   0.082304
H  -1.418780   0.753034   0.809928
H  -1.315502   0.847771  -0.951014
H  -0.174861  -1.290309   0.970055
H   0.743798  -0.093170   0.044562
H  -0.069600  -1.404376  -0.801381
