butane_opt
 OpenBabel08242015423D

 14 13  0  0  0  0  0  0  0  0999 V2000
   -3.9556    0.2773    0.0448 C   0  0  0  0  0  0  0  0  0  0  0  0
   -2.6582   -0.6341   -0.0063 C   0  0  0  0  0  0  0  0  0  0  0  0
   -4.8238   -0.2810    0.3372 H   0  0  0  0  0  0  0  0  0  0  0  0
   -4.0642    1.0758   -0.9425 H   0  0  0  0  0  0  0  0  0  0  0  0
   -3.8669    0.7887    0.8326 H   0  0  0  0  0  0  0  0  0  0  0  0
   -1.3994    0.1628   -0.0107 C   0  0  0  0  0  0  0  0  0  0  0  0
   -2.7302   -1.4557   -0.9804 H   0  0  0  0  0  0  0  0  0  0  0  0
   -2.6448   -1.1919    0.8239 H   0  0  0  0  0  0  0  0  0  0  0  0
   -0.1959   -0.6693    0.0676 C   0  0  0  0  0  0  0  0  0  0  0  0
   -1.3359    0.8465    0.8611 H   0  0  0  0  0  0  0  0  0  0  0  0
   -1.4257    0.8250   -0.9013 H   0  0  0  0  0  0  0  0  0  0  0  0
   -0.2081   -1.2824    0.9421 H   0  0  0  0  0  0  0  0  0  0  0  0
    0.7217   -0.0663    0.0719 H   0  0  0  0  0  0  0  0  0  0  0  0
   -0.1459   -1.3506   -0.7583 H   0  0  0  0  0  0  0  0  0  0  0  0
  1  3  1  0  0  0  0
  1  5  1  0  0  0  0
  2  1  1  0  0  0  0
  2  8  1  0  0  0  0
  4  1  1  0  0  0  0
  6  2  1  0  0  0  0
  6  9  1  0  0  0  0
  6 10  1  0  0  0  0
  7  2  1  0  0  0  0
  9 13  1  0  0  0  0
  9 12  1  0  0  0  0
 11  6  1  0  0  0  0
 14  9  1  0  0  0  0
M  END
$$$$
