14
butane_opt
C  -3.944066   0.271460   0.005214
C  -2.692602  -0.615529   0.041266
H  -4.863887  -0.325330   0.152337
H  -4.047486   0.971070  -0.927005
H  -3.944996   0.842545   0.815150
C  -1.399453   0.166932   0.020127
H  -2.671113  -1.275824  -0.802915
H  -2.677382  -1.283877   0.973899
C  -0.172462  -0.680944   0.026645
H  -1.408705   0.915412   0.910585
H  -1.351968   0.752186  -0.861579
H  -0.185845  -1.259124   0.875731
H   0.773888  -0.056234   0.041222
H  -0.142769  -1.452212  -0.879575
