butane_opt
 OpenBabel08242015423D

 14 13  0  0  0  0  0  0  0  0999 V2000
   -3.9468    0.2605    0.0520 C   0  0  0  0  0  0  0  0  0  0  0  0
   -2.6906   -0.6048    0.0109 C   0  0  0  0  0  0  0  0  0  0  0  0
   -4.9321   -0.3775   -0.0697 H   0  0  0  0  0  0  0  0  0  0  0  0
   -3.9126    0.7011   -0.7691 H   0  0  0  0  0  0  0  0  0  0  0  0
   -3.9585    1.0816    1.0214 H   0  0  0  0  0  0  0  0  0  0  0  0
   -1.4150    0.1801   -0.0241 C   0  0  0  0  0  0  0  0  0  0  0  0
   -2.7407   -1.2744   -0.8700 H   0  0  0  0  0  0  0  0  0  0  0  0
   -2.7359   -1.1761    0.8648 H   0  0  0  0  0  0  0  0  0  0  0  0
   -0.1592   -0.6926    0.0651 C   0  0  0  0  0  0  0  0  0  0  0  0
   -1.3808    0.7112    0.7562 H   0  0  0  0  0  0  0  0  0  0  0  0
   -1.4364    0.9433   -0.9950 H   0  0  0  0  0  0  0  0  0  0  0  0
   -0.0687   -1.3721    0.9774 H   0  0  0  0  0  0  0  0  0  0  0  0
    0.7619   -0.1126    0.0417 H   0  0  0  0  0  0  0  0  0  0  0  0
   -0.0855   -1.3201   -0.7293 H   0  0  0  0  0  0  0  0  0  0  0  0
  1  5  1  0  0  0  0
  2  1  1  0  0  0  0
  2  8  1  0  0  0  0
  3  1  1  0  0  0  0
  4  1  1  0  0  0  0
  6  2  1  0  0  0  0
  6  9  1  0  0  0  0
  6 10  1  0  0  0  0
  7  2  1  0  0  0  0
  9 12  1  0  0  0  0
 11  6  1  0  0  0  0
 13  9  1  0  0  0  0
 14  9  1  0  0  0  0
M  END
$$$$
