butane_opt
 OpenBabel08242015423D

 14 13  0  0  0  0  0  0  0  0999 V2000
   -3.9714    0.2834    0.0537 C   0  0  0  0  0  0  0  0  0  0  0  0
   -2.6960   -0.6255    0.0103 C   0  0  0  0  0  0  0  0  0  0  0  0
   -4.8046   -0.2644   -0.0675 H   0  0  0  0  0  0  0  0  0  0  0  0
   -3.9091    0.8058   -0.7847 H   0  0  0  0  0  0  0  0  0  0  0  0
   -4.0608    1.0264    0.9445 H   0  0  0  0  0  0  0  0  0  0  0  0
   -1.3826    0.1583    0.0008 C   0  0  0  0  0  0  0  0  0  0  0  0
   -2.7819   -1.4513   -0.9608 H   0  0  0  0  0  0  0  0  0  0  0  0
   -2.7201   -1.1807    0.8606 H   0  0  0  0  0  0  0  0  0  0  0  0
   -0.1514   -0.6835    0.0488 C   0  0  0  0  0  0  0  0  0  0  0  0
   -1.4257    0.8413    0.7817 H   0  0  0  0  0  0  0  0  0  0  0  0
   -1.3378    0.8345   -0.9370 H   0  0  0  0  0  0  0  0  0  0  0  0
   -0.1375   -1.5144    1.0796 H   0  0  0  0  0  0  0  0  0  0  0  0
    0.8179   -0.0456   -0.1255 H   0  0  0  0  0  0  0  0  0  0  0  0
   -0.2560   -1.0990   -0.6760 H   0  0  0  0  0  0  0  0  0  0  0  0
  1  5  1  0  0  0  0
  2  1  1  0  0  0  0
  2  8  1  0  0  0  0
  3  1  1  0  0  0  0
  4  1  1  0  0  0  0
  6  2  1  0  0  0  0
  6  9  1  0  0  0  0
  6 10  1  0  0  0  0
  7  2  1  0  0  0  0
  9 12  1  0  0  0  0
 11  6  1  0  0  0  0
 13  9  1  0  0  0  0
 14  9  1  0  0  0  0
M  END
$$$$
