14
butane_opt
C  -3.952858   0.262283  -0.045968
C  -2.703526  -0.619436   0.106469
H  -4.860766  -0.306125  -0.129399
H  -3.962158   0.775903  -0.826549
H  -4.141523   1.146702   0.943697
C  -1.393650   0.170858   0.046261
H  -2.599031  -1.213927  -0.704137
H  -2.767919  -1.362967   1.078900
C  -0.147486  -0.685295  -0.017861
H  -1.373907   0.871493   0.936040
H  -1.391272   0.769814  -0.837673
H  -0.113405  -1.291243   0.876886
H   0.775132  -0.064579  -0.051424
H  -0.206242  -1.343912  -0.891975
