butane_opt
 OpenBabel08242015423D

 14 13  0  0  0  0  0  0  0  0999 V2000
   -3.9519    0.2581   -0.0021 C   0  0  0  0  0  0  0  0  0  0  0  0
   -2.6996   -0.6190    0.0439 C   0  0  0  0  0  0  0  0  0  0  0  0
   -4.8606   -0.3565    0.1591 H   0  0  0  0  0  0  0  0  0  0  0  0
   -4.0151    0.9578   -0.9560 H   0  0  0  0  0  0  0  0  0  0  0  0
   -3.9354    0.8369    0.8126 H   0  0  0  0  0  0  0  0  0  0  0  0
   -1.4067    0.2063    0.0372 C   0  0  0  0  0  0  0  0  0  0  0  0
   -2.6576   -1.2367   -0.7630 H   0  0  0  0  0  0  0  0  0  0  0  0
   -2.7704   -1.2554    0.9332 H   0  0  0  0  0  0  0  0  0  0  0  0
   -0.1591   -0.7056    0.0112 C   0  0  0  0  0  0  0  0  0  0  0  0
   -1.3493    0.9253    0.9227 H   0  0  0  0  0  0  0  0  0  0  0  0
   -1.3715    0.8064   -0.8207 H   0  0  0  0  0  0  0  0  0  0  0  0
   -0.0788   -1.2925    0.8848 H   0  0  0  0  0  0  0  0  0  0  0  0
    0.7398   -0.1139    0.0226 H   0  0  0  0  0  0  0  0  0  0  0  0
   -0.1125   -1.4222   -0.8439 H   0  0  0  0  0  0  0  0  0  0  0  0
  1  2  1  0  0  0  0
  1  3  1  0  0  0  0
  1  5  1  0  0  0  0
  2  8  1  0  0  0  0
  4  1  1  0  0  0  0
  6  2  1  0  0  0  0
  6 10  1  0  0  0  0
  7  2  1  0  0  0  0
  9 13  1  0  0  0  0
  9  6  1  0  0  0  0
  9 12  1  0  0  0  0
 11  6  1  0  0  0  0
 14  9  1  0  0  0  0
M  END
$$$$
