14
butane_opt
C  -3.961284   0.258050  -0.020322
C  -2.719472  -0.631927   0.065658
H  -4.847799  -0.339642   0.283597
H  -4.050655   1.193607  -1.092819
H  -3.848441   0.742488   0.704894
C  -1.396509   0.211396   0.064272
H  -2.707517  -1.304751  -0.812194
H  -2.693723  -1.218314   0.899368
C  -0.147026  -0.697246  -0.010897
H  -1.316393   0.900350   0.972917
H  -1.427289   0.730557  -0.766865
H  -0.129992  -1.231385   0.851980
H   0.748118  -0.156553   0.059880
H  -0.060197  -1.458759  -0.882324
