14
butane_opt
C  -3.946606   0.278628   0.089838
C  -2.689880  -0.643716  -0.058863
H  -4.805372  -0.250033   0.280664
H  -4.102309   0.982407  -0.874705
H  -3.932933   0.871611   0.908384
C  -1.417689   0.179919  -0.050484
H  -2.790628  -1.405348  -0.935633
H  -2.623654  -1.252308   0.803255
C  -0.167491  -0.680440   0.093165
H  -1.368852   0.886393   0.842065
H  -1.344625   0.790072  -0.943181
H  -0.178042  -1.376221   1.067020
H   0.835568  -0.011985   0.088360
H  -0.074063  -1.288375  -0.678153
