butane_opt
 OpenBabel08242015423D

 14 13  0  0  0  0  0  0  0  0999 V2000
   -3.9405    0.2742    0.0384 C   0  0  0  0  0  0  0  0  0  0  0  0
   -2.6955   -0.6397    0.0091 C   0  0  0  0  0  0  0  0  0  0  0  0
   -4.8053   -0.2810   -0.0496 H   0  0  0  0  0  0  0  0  0  0  0  0
   -4.0933    0.7611   -0.7493 H   0  0  0  0  0  0  0  0  0  0  0  0
   -3.9179    1.1330    1.0382 H   0  0  0  0  0  0  0  0  0  0  0  0
   -1.3894    0.1718   -0.0253 C   0  0  0  0  0  0  0  0  0  0  0  0
   -2.7114   -1.2602   -0.8144 H   0  0  0  0  0  0  0  0  0  0  0  0
   -2.6369   -1.2358    0.8760 H   0  0  0  0  0  0  0  0  0  0  0  0
   -0.1949   -0.6850    0.0668 C   0  0  0  0  0  0  0  0  0  0  0  0
   -1.3570    0.7776    0.7881 H   0  0  0  0  0  0  0  0  0  0  0  0
   -1.3304    0.8687   -0.9397 H   0  0  0  0  0  0  0  0  0  0  0  0
   -0.1598   -1.3986    0.9829 H   0  0  0  0  0  0  0  0  0  0  0  0
    0.7360   -0.0220    0.0130 H   0  0  0  0  0  0  0  0  0  0  0  0
   -0.1103   -1.2681   -0.7572 H   0  0  0  0  0  0  0  0  0  0  0  0
  1  5  1  0  0  0  0
  2  1  1  0  0  0  0
  2  8  1  0  0  0  0
  3  1  1  0  0  0  0
  4  1  1  0  0  0  0
  6  2  1  0  0  0  0
  6  9  1  0  0  0  0
  6 10  1  0  0  0  0
  7  2  1  0  0  0  0
  9 12  1  0  0  0  0
 11  6  1  0  0  0  0
 13  9  1  0  0  0  0
 14  9  1  0  0  0  0
M  END
$$$$
