14
butane_opt
C  -3.930277   0.273885  -0.032468
C  -2.680178  -0.630713   0.079326
H  -4.805909  -0.284881  -0.005190
H  -3.967797   0.891190  -0.937876
H  -3.999527   0.947775   0.803278
C  -1.415606   0.158268   0.072416
H  -2.684826  -1.324893  -0.756143
H  -2.765105  -1.255199   0.940253
C  -0.186273  -0.672685  -0.019090
H  -1.337642   1.031862   1.045811
H  -1.459767   0.710132  -0.780380
H  -0.062612  -1.460269   0.955655
H   0.758075  -0.073570  -0.278538
H  -0.171852  -1.179984  -0.735954
