butane_opt
 OpenBabel08242015423D

 14 13  0  0  0  0  0  0  0  0999 V2000
   -3.9440    0.2700   -0.0199 C   0  0  0  0  0  0  0  0  0  0  0  0
   -2.6742   -0.6220    0.0853 C   0  0  0  0  0  0  0  0  0  0  0  0
   -4.8377   -0.2792   -0.0012 H   0  0  0  0  0  0  0  0  0  0  0  0
   -3.9286    0.8871   -0.9456 H   0  0  0  0  0  0  0  0  0  0  0  0
   -4.0737    0.9683    0.8006 H   0  0  0  0  0  0  0  0  0  0  0  0
   -1.4063    0.1588    0.0530 C   0  0  0  0  0  0  0  0  0  0  0  0
   -2.7312   -1.3442   -0.7647 H   0  0  0  0  0  0  0  0  0  0  0  0
   -2.6783   -1.1845    0.9132 H   0  0  0  0  0  0  0  0  0  0  0  0
   -0.1685   -0.6731   -0.0032 C   0  0  0  0  0  0  0  0  0  0  0  0
   -1.3479    0.8259    0.9012 H   0  0  0  0  0  0  0  0  0  0  0  0
   -1.5050    0.7624   -0.8026 H   0  0  0  0  0  0  0  0  0  0  0  0
   -0.1685   -1.3480    0.9451 H   0  0  0  0  0  0  0  0  0  0  0  0
    0.8196   -0.0402   -0.0882 H   0  0  0  0  0  0  0  0  0  0  0  0
   -0.2647   -1.3124   -0.8890 H   0  0  0  0  0  0  0  0  0  0  0  0
  1  3  1  0  0  0  0
  1  2  1  0  0  0  0
  1  5  1  0  0  0  0
  2  8  1  0  0  0  0
  4  1  1  0  0  0  0
  6  2  1  0  0  0  0
  6 10  1  0  0  0  0
  7  2  1  0  0  0  0
  9  6  1  0  0  0  0
  9 12  1  0  0  0  0
 11  6  1  0  0  0  0
 13  9  1  0  0  0  0
 14  9  1  0  0  0  0
M  END
$$$$
