butane_opt
 OpenBabel08242015423D

 14 13  0  0  0  0  0  0  0  0999 V2000
   -3.9294    0.2518    0.0593 C   0  0  0  0  0  0  0  0  0  0  0  0
   -2.7048   -0.6063    0.0186 C   0  0  0  0  0  0  0  0  0  0  0  0
   -4.8308   -0.3077   -0.2219 H   0  0  0  0  0  0  0  0  0  0  0  0
   -3.9272    0.6047   -0.6584 H   0  0  0  0  0  0  0  0  0  0  0  0
   -3.9760    1.1867    1.0775 H   0  0  0  0  0  0  0  0  0  0  0  0
   -1.4076    0.1998   -0.0584 C   0  0  0  0  0  0  0  0  0  0  0  0
   -2.7816   -1.2814   -0.8277 H   0  0  0  0  0  0  0  0  0  0  0  0
   -2.6920   -1.1900    0.8930 H   0  0  0  0  0  0  0  0  0  0  0  0
   -0.1766   -0.7080    0.0708 C   0  0  0  0  0  0  0  0  0  0  0  0
   -1.3711    0.8254    0.7134 H   0  0  0  0  0  0  0  0  0  0  0  0
   -1.3816    0.8686   -0.9583 H   0  0  0  0  0  0  0  0  0  0  0  0
   -0.1811   -1.4823    1.0649 H   0  0  0  0  0  0  0  0  0  0  0  0
    0.7863   -0.0920    0.0431 H   0  0  0  0  0  0  0  0  0  0  0  0
   -0.0492   -1.2591   -0.7334 H   0  0  0  0  0  0  0  0  0  0  0  0
  1  5  1  0  0  0  0
  2  1  1  0  0  0  0
  2  8  1  0  0  0  0
  3  1  1  0  0  0  0
  4  1  1  0  0  0  0
  6  2  1  0  0  0  0
  6  9  1  0  0  0  0
  6 10  1  0  0  0  0
  7  2  1  0  0  0  0
  9 12  1  0  0  0  0
 11  6  1  0  0  0  0
 13  9  1  0  0  0  0
 14  9  1  0  0  0  0
M  END
$$$$
