butane_opt
 OpenBabel08242015423D

 14 13  0  0  0  0  0  0  0  0999 V2000
   -3.9469    0.2495    0.0489 C   0  0  0  0  0  0  0  0  0  0  0  0
   -2.7121   -0.6006    0.0222 C   0  0  0  0  0  0  0  0  0  0  0  0
   -4.8955   -0.3867    0.0255 H   0  0  0  0  0  0  0  0  0  0  0  0
   -3.9822    0.8694   -0.8437 H   0  0  0  0  0  0  0  0  0  0  0  0
   -3.9688    0.9593    0.9163 H   0  0  0  0  0  0  0  0  0  0  0  0
   -1.4111    0.1952   -0.0273 C   0  0  0  0  0  0  0  0  0  0  0  0
   -2.7573   -1.2837   -0.8542 H   0  0  0  0  0  0  0  0  0  0  0  0
   -2.6521   -1.2139    0.8836 H   0  0  0  0  0  0  0  0  0  0  0  0
   -0.1418   -0.7034    0.0606 C   0  0  0  0  0  0  0  0  0  0  0  0
   -1.4178    0.8288    0.7774 H   0  0  0  0  0  0  0  0  0  0  0  0
   -1.3542    0.8854   -0.9414 H   0  0  0  0  0  0  0  0  0  0  0  0
   -0.1579   -1.2669    0.9326 H   0  0  0  0  0  0  0  0  0  0  0  0
    0.7380   -0.1285    0.1183 H   0  0  0  0  0  0  0  0  0  0  0  0
   -0.0197   -1.4419   -0.8372 H   0  0  0  0  0  0  0  0  0  0  0  0
  1  5  1  0  0  0  0
  2  1  1  0  0  0  0
  2  8  1  0  0  0  0
  3  1  1  0  0  0  0
  4  1  1  0  0  0  0
  6  2  1  0  0  0  0
  6  9  1  0  0  0  0
  6 10  1  0  0  0  0
  7  2  1  0  0  0  0
  9 13  1  0  0  0  0
  9 12  1  0  0  0  0
 11  6  1  0  0  0  0
 14  9  1  0  0  0  0
M  END
$$$$
