butane_opt
 OpenBabel08242015423D

 14 13  0  0  0  0  0  0  0  0999 V2000
   -3.9303    0.2739   -0.0325 C   0  0  0  0  0  0  0  0  0  0  0  0
   -2.6802   -0.6307    0.0793 C   0  0  0  0  0  0  0  0  0  0  0  0
   -4.8059   -0.2849   -0.0052 H   0  0  0  0  0  0  0  0  0  0  0  0
   -3.9678    0.8912   -0.9379 H   0  0  0  0  0  0  0  0  0  0  0  0
   -3.9995    0.9478    0.8033 H   0  0  0  0  0  0  0  0  0  0  0  0
   -1.4156    0.1583    0.0724 C   0  0  0  0  0  0  0  0  0  0  0  0
   -2.6848   -1.3249   -0.7561 H   0  0  0  0  0  0  0  0  0  0  0  0
   -2.7651   -1.2552    0.9403 H   0  0  0  0  0  0  0  0  0  0  0  0
   -0.1863   -0.6727   -0.0191 C   0  0  0  0  0  0  0  0  0  0  0  0
   -1.3376    1.0319    1.0458 H   0  0  0  0  0  0  0  0  0  0  0  0
   -1.4598    0.7101   -0.7804 H   0  0  0  0  0  0  0  0  0  0  0  0
   -0.0626   -1.4603    0.9557 H   0  0  0  0  0  0  0  0  0  0  0  0
    0.7581   -0.0736   -0.2785 H   0  0  0  0  0  0  0  0  0  0  0  0
   -0.1719   -1.1800   -0.7360 H   0  0  0  0  0  0  0  0  0  0  0  0
  1  3  1  0  0  0  0
  1  2  1  0  0  0  0
  1  5  1  0  0  0  0
  2  8  1  0  0  0  0
  4  1  1  0  0  0  0
  6  2  1  0  0  0  0
  6 10  1  0  0  0  0
  7  2  1  0  0  0  0
  9  6  1  0  0  0  0
  9 12  1  0  0  0  0
 11  6  1  0  0  0  0
 13  9  1  0  0  0  0
 14  9  1  0  0  0  0
M  END
$$$$
