butane_opt
 OpenBabel08242015423D

 14 13  0  0  0  0  0  0  0  0999 V2000
   -3.9608    0.2668    0.0745 C   0  0  0  0  0  0  0  0  0  0  0  0
   -2.7156   -0.6156   -0.0338 C   0  0  0  0  0  0  0  0  0  0  0  0
   -4.8101   -0.2560    0.1552 H   0  0  0  0  0  0  0  0  0  0  0  0
   -4.0316    0.9302   -0.8902 H   0  0  0  0  0  0  0  0  0  0  0  0
   -3.9073    0.8699    0.8961 H   0  0  0  0  0  0  0  0  0  0  0  0
   -1.4029    0.1723   -0.0211 C   0  0  0  0  0  0  0  0  0  0  0  0
   -2.7476   -1.3312   -0.9154 H   0  0  0  0  0  0  0  0  0  0  0  0
   -2.6027   -1.1888    0.7846 H   0  0  0  0  0  0  0  0  0  0  0  0
   -0.1496   -0.6777    0.0735 C   0  0  0  0  0  0  0  0  0  0  0  0
   -1.3950    0.8438    0.8346 H   0  0  0  0  0  0  0  0  0  0  0  0
   -1.3776    0.7207   -0.9102 H   0  0  0  0  0  0  0  0  0  0  0  0
   -0.0983   -1.4694    1.0868 H   0  0  0  0  0  0  0  0  0  0  0  0
    0.8176   -0.0590   -0.0169 H   0  0  0  0  0  0  0  0  0  0  0  0
   -0.1470   -1.2522   -0.6903 H   0  0  0  0  0  0  0  0  0  0  0  0
  1  3  1  0  0  0  0
  1  5  1  0  0  0  0
  2  6  1  0  0  0  0
  2  1  1  0  0  0  0
  2  8  1  0  0  0  0
  4  1  1  0  0  0  0
  6  9  1  0  0  0  0
  6 10  1  0  0  0  0
  7  2  1  0  0  0  0
  9 12  1  0  0  0  0
 11  6  1  0  0  0  0
 13  9  1  0  0  0  0
 14  9  1  0  0  0  0
M  END
$$$$
