14
butane_opt
C  -3.918786   0.241932   0.075014
C  -2.701545  -0.604567  -0.008069
H  -4.852179  -0.357322  -0.002635
H  -4.041097   0.777405  -0.770552
H  -3.898321   1.078613   1.034693
C  -1.426381   0.204050  -0.068757
H  -2.741298  -1.239333  -0.814279
H  -2.807288  -1.247234   0.874237
C  -0.141796  -0.702910   0.084805
H  -1.471421   0.792956   0.736009
H  -1.398855   0.884657  -0.974349
H  -0.249506  -1.270086   0.991690
H   0.693893  -0.179500   0.191445
H   0.017409  -1.390454  -0.815165
