14
butane_opt
C  -3.958201   0.280593  -0.029477
C  -2.702418  -0.630578   0.047386
H  -4.885457  -0.307482   0.322144
H  -4.103228   1.141666  -1.079504
H  -3.840677   0.773418   0.705764
C  -1.396188   0.164423   0.071212
H  -2.715734  -1.267703  -0.736371
H  -2.835550  -1.321737   1.007177
C  -0.149280  -0.691744  -0.006348
H  -1.302116   0.955569   1.007848
H  -1.462611   0.717696  -0.757133
H  -0.076084  -1.192684   0.819372
H   0.847663  -0.051631   0.070053
H  -0.192422  -1.372652  -0.929073
