14
butane_opt
C  -3.966342   0.283530   0.055620
C  -2.707158  -0.637813  -0.001458
H  -4.862845  -0.261469   0.114634
H  -4.131442   0.857424  -0.774801
H  -3.984910   0.970247   0.921335
C  -1.367751   0.157442  -0.041468
H  -2.807784  -1.273360  -0.861526
H  -2.646841  -1.228345   0.888597
C  -0.149766  -0.681100   0.082774
H  -1.460491   0.774218   0.744880
H  -1.331143   0.895001  -1.019252
H  -0.248337  -1.157368   0.908955
H   0.796697  -0.027257   0.155145
H  -0.057945  -1.491366  -0.807888
