14
butane_opt
C  -3.964748   0.263319  -0.014174
C  -2.696939  -0.614475   0.059101
H  -4.872934  -0.305919   0.205944
H  -4.007489   1.080184  -1.047440
H  -3.927172   0.751273   0.727186
C  -1.419096   0.172113   0.074658
H  -2.663857  -1.371472  -0.819806
H  -2.716440  -1.178634   0.928479
C  -0.146744  -0.680515  -0.008087
H  -1.316839   0.899092   0.957399
H  -1.345125   0.778426  -0.806385
H  -0.149053  -1.337844   0.908440
H   0.778496  -0.097844  -0.068660
H  -0.080268  -1.367811  -0.908390
