14
butane_opt
C  -3.942700   0.243361   0.048157
C  -2.715176  -0.601991  -0.016345
H  -4.789154  -0.333398   0.250741
H  -4.144234   1.025982  -0.946848
H  -3.789566   0.783177   0.855473
C  -1.404888   0.212676  -0.011828
H  -2.761887  -1.308786  -0.918456
H  -2.694591  -1.209387   0.875355
C  -0.153780  -0.702402   0.060357
H  -1.356226   0.953478   0.882396
H  -1.421197   0.758185  -0.859281
H  -0.128525  -1.390657   1.071442
H   0.735455  -0.162211   0.035394
H  -0.071587  -1.401347  -0.787033
