14
butane_opt
C  -3.961701   0.278570  -0.018186
C  -2.704310  -0.627199   0.070753
H  -4.877509  -0.329976   0.024392
H  -3.933991   0.945451  -0.952136
H  -4.037232   0.920471   0.795156
C  -1.389548   0.171213   0.063918
H  -2.713348  -1.330148  -0.786149
H  -2.725653  -1.267236   0.982061
C  -0.150670  -0.680288  -0.006443
H  -1.318582   0.884667   0.923925
H  -1.429409   0.793267  -0.806206
H  -0.103290  -1.356817   0.903762
H   0.776621  -0.091424  -0.088211
H  -0.190460  -1.343124  -0.875145
