butane_opt
 OpenBabel08242015423D

 14 13  0  0  0  0  0  0  0  0999 V2000
   -3.9241    0.2406    0.0676 C   0  0  0  0  0  0  0  0  0  0  0  0
   -2.7094   -0.5816   -0.0090 C   0  0  0  0  0  0  0  0  0  0  0  0
   -4.8197   -0.3830    0.1579 H   0  0  0  0  0  0  0  0  0  0  0  0
   -3.9641    0.7792   -0.7259 H   0  0  0  0  0  0  0  0  0  0  0  0
   -3.8435    0.9942    0.9978 H   0  0  0  0  0  0  0  0  0  0  0  0
   -1.4288    0.1907   -0.0846 C   0  0  0  0  0  0  0  0  0  0  0  0
   -2.7542   -1.2327   -0.8477 H   0  0  0  0  0  0  0  0  0  0  0  0
   -2.6481   -1.2002    0.8807 H   0  0  0  0  0  0  0  0  0  0  0  0
   -0.1567   -0.7012    0.0961 C   0  0  0  0  0  0  0  0  0  0  0  0
   -1.5960    0.7785    0.7310 H   0  0  0  0  0  0  0  0  0  0  0  0
   -1.3451    0.8594   -1.0028 H   0  0  0  0  0  0  0  0  0  0  0  0
   -0.2271   -1.2390    0.9393 H   0  0  0  0  0  0  0  0  0  0  0  0
    0.7969   -0.0994    0.2982 H   0  0  0  0  0  0  0  0  0  0  0  0
   -0.0030   -1.5096   -0.8355 H   0  0  0  0  0  0  0  0  0  0  0  0
  1  3  1  0  0  0  0
  1  5  1  0  0  0  0
  2  1  1  0  0  0  0
  2  8  1  0  0  0  0
  4  1  1  0  0  0  0
  6  2  1  0  0  0  0
  6  9  1  0  0  0  0
  6 10  1  0  0  0  0
  7  2  1  0  0  0  0
  9 13  1  0  0  0  0
  9 12  1  0  0  0  0
 11  6  1  0  0  0  0
 14  9  1  0  0  0  0
M  END
$$$$
