butane_opt
 OpenBabel08242015423D

 14 13  0  0  0  0  0  0  0  0999 V2000
   -3.9379    0.2410    0.0707 C   0  0  0  0  0  0  0  0  0  0  0  0
   -2.7096   -0.6071   -0.0252 C   0  0  0  0  0  0  0  0  0  0  0  0
   -4.8370   -0.3819    0.2294 H   0  0  0  0  0  0  0  0  0  0  0  0
   -4.0726    0.9067   -0.8530 H   0  0  0  0  0  0  0  0  0  0  0  0
   -3.9314    0.9283    0.8992 H   0  0  0  0  0  0  0  0  0  0  0  0
   -1.4281    0.2259   -0.0337 C   0  0  0  0  0  0  0  0  0  0  0  0
   -2.7943   -1.3679   -0.9326 H   0  0  0  0  0  0  0  0  0  0  0  0
   -2.6875   -1.1220    0.7983 H   0  0  0  0  0  0  0  0  0  0  0  0
   -0.1367   -0.7111    0.0757 C   0  0  0  0  0  0  0  0  0  0  0  0
   -1.3867    0.8237    0.7828 H   0  0  0  0  0  0  0  0  0  0  0  0
   -1.3540    0.8261   -0.9231 H   0  0  0  0  0  0  0  0  0  0  0  0
   -0.1545   -1.4297    1.0510 H   0  0  0  0  0  0  0  0  0  0  0  0
    0.7211   -0.1512    0.0724 H   0  0  0  0  0  0  0  0  0  0  0  0
    0.0337   -1.2901   -0.7230 H   0  0  0  0  0  0  0  0  0  0  0  0
  1  3  1  0  0  0  0
  1  5  1  0  0  0  0
  2  1  1  0  0  0  0
  2  8  1  0  0  0  0
  4  1  1  0  0  0  0
  6  2  1  0  0  0  0
  6  9  1  0  0  0  0
  6 10  1  0  0  0  0
  7  2  1  0  0  0  0
  9 12  1  0  0  0  0
 11  6  1  0  0  0  0
 13  9  1  0  0  0  0
 14  9  1  0  0  0  0
M  END
$$$$
