butane_opt
 OpenBabel08242015423D

 14 13  0  0  0  0  0  0  0  0999 V2000
   -3.9296    0.2719   -0.0608 C   0  0  0  0  0  0  0  0  0  0  0  0
   -2.6917   -0.6189    0.1334 C   0  0  0  0  0  0  0  0  0  0  0  0
   -4.8293   -0.2967   -0.1591 H   0  0  0  0  0  0  0  0  0  0  0  0
   -3.8698    0.7731   -0.9312 H   0  0  0  0  0  0  0  0  0  0  0  0
   -4.0460    1.0569    0.8746 H   0  0  0  0  0  0  0  0  0  0  0  0
   -1.3989    0.1592    0.0764 C   0  0  0  0  0  0  0  0  0  0  0  0
   -2.6096   -1.2695   -0.6702 H   0  0  0  0  0  0  0  0  0  0  0  0
   -2.8087   -1.3130    1.0324 H   0  0  0  0  0  0  0  0  0  0  0  0
   -0.1897   -0.6813   -0.0319 C   0  0  0  0  0  0  0  0  0  0  0  0
   -1.3773    0.8803    0.9820 H   0  0  0  0  0  0  0  0  0  0  0  0
   -1.4310    0.8494   -0.8323 H   0  0  0  0  0  0  0  0  0  0  0  0
   -0.0600   -1.2652    0.8320 H   0  0  0  0  0  0  0  0  0  0  0  0
    0.7175   -0.0651   -0.1512 H   0  0  0  0  0  0  0  0  0  0  0  0
   -0.2055   -1.3883   -0.9367 H   0  0  0  0  0  0  0  0  0  0  0  0
  1  2  1  0  0  0  0
  1  5  1  0  0  0  0
  2  8  1  0  0  0  0
  3  1  1  0  0  0  0
  4  1  1  0  0  0  0
  6  2  1  0  0  0  0
  6 10  1  0  0  0  0
  7  2  1  0  0  0  0
  9  6  1  0  0  0  0
  9 12  1  0  0  0  0
 11  6  1  0  0  0  0
 13  9  1  0  0  0  0
 14  9  1  0  0  0  0
M  END
$$$$
