butane_opt
 OpenBabel08242015423D

 14 13  0  0  0  0  0  0  0  0999 V2000
   -3.9449    0.2730    0.0595 C   0  0  0  0  0  0  0  0  0  0  0  0
   -2.6831   -0.6368   -0.0001 C   0  0  0  0  0  0  0  0  0  0  0  0
   -4.8432   -0.2819   -0.0048 H   0  0  0  0  0  0  0  0  0  0  0  0
   -3.9685    0.8496   -0.7606 H   0  0  0  0  0  0  0  0  0  0  0  0
   -3.9203    1.1247    1.0239 H   0  0  0  0  0  0  0  0  0  0  0  0
   -1.4069    0.1613   -0.0394 C   0  0  0  0  0  0  0  0  0  0  0  0
   -2.7011   -1.3080   -0.8523 H   0  0  0  0  0  0  0  0  0  0  0  0
   -2.6557   -1.2534    0.8314 H   0  0  0  0  0  0  0  0  0  0  0  0
   -0.1885   -0.6719    0.0803 C   0  0  0  0  0  0  0  0  0  0  0  0
   -1.3478    0.7011    0.7140 H   0  0  0  0  0  0  0  0  0  0  0  0
   -1.3384    0.8686   -0.9855 H   0  0  0  0  0  0  0  0  0  0  0  0
   -0.2381   -1.2319    0.9834 H   0  0  0  0  0  0  0  0  0  0  0  0
    0.7295   -0.0857    0.0497 H   0  0  0  0  0  0  0  0  0  0  0  0
   -0.0686   -1.3570   -0.7571 H   0  0  0  0  0  0  0  0  0  0  0  0
  1  5  1  0  0  0  0
  2  1  1  0  0  0  0
  2  8  1  0  0  0  0
  3  1  1  0  0  0  0
  4  1  1  0  0  0  0
  6  2  1  0  0  0  0
  6  9  1  0  0  0  0
  6 10  1  0  0  0  0
  7  2  1  0  0  0  0
  9 12  1  0  0  0  0
 11  6  1  0  0  0  0
 13  9  1  0  0  0  0
 14  9  1  0  0  0  0
M  END
$$$$
