14
butane_opt
C  -3.944450   0.246831   0.062236
C  -2.734688  -0.588657  -0.000429
H  -4.864440  -0.334866   0.144235
H  -3.963954   0.794648  -0.787806
H  -3.948726   0.921144   0.923477
C  -1.414701   0.205475  -0.053642
H  -2.834466  -1.291289  -0.873331
H  -2.706567  -1.166634   0.850603
C  -0.121841  -0.717249   0.091968
H  -1.395819   0.763692   0.705112
H  -1.380713   0.939463  -0.976653
H  -0.134018  -1.255390   0.883286
H   0.780843  -0.098110   0.210349
H   0.011266  -1.509183  -0.839397
