butane_opt
 OpenBabel08242015423D

 14 13  0  0  0  0  0  0  0  0999 V2000
   -3.9427    0.2434    0.0482 C   0  0  0  0  0  0  0  0  0  0  0  0
   -2.7152   -0.6020   -0.0163 C   0  0  0  0  0  0  0  0  0  0  0  0
   -4.7892   -0.3334    0.2507 H   0  0  0  0  0  0  0  0  0  0  0  0
   -4.1442    1.0260   -0.9468 H   0  0  0  0  0  0  0  0  0  0  0  0
   -3.7896    0.7832    0.8555 H   0  0  0  0  0  0  0  0  0  0  0  0
   -1.4049    0.2127   -0.0118 C   0  0  0  0  0  0  0  0  0  0  0  0
   -2.7619   -1.3088   -0.9185 H   0  0  0  0  0  0  0  0  0  0  0  0
   -2.6946   -1.2094    0.8754 H   0  0  0  0  0  0  0  0  0  0  0  0
   -0.1538   -0.7024    0.0604 C   0  0  0  0  0  0  0  0  0  0  0  0
   -1.3562    0.9535    0.8824 H   0  0  0  0  0  0  0  0  0  0  0  0
   -1.4212    0.7582   -0.8593 H   0  0  0  0  0  0  0  0  0  0  0  0
   -0.1285   -1.3907    1.0714 H   0  0  0  0  0  0  0  0  0  0  0  0
    0.7355   -0.1622    0.0354 H   0  0  0  0  0  0  0  0  0  0  0  0
   -0.0716   -1.4013   -0.7870 H   0  0  0  0  0  0  0  0  0  0  0  0
  1  3  1  0  0  0  0
  1  5  1  0  0  0  0
  2  6  1  0  0  0  0
  2  1  1  0  0  0  0
  2  8  1  0  0  0  0
  4  1  1  0  0  0  0
  6  9  1  0  0  0  0
  6 10  1  0  0  0  0
  7  2  1  0  0  0  0
  9 12  1  0  0  0  0
 11  6  1  0  0  0  0
 13  9  1  0  0  0  0
 14  9  1  0  0  0  0
M  END
$$$$
