butane_opt
 OpenBabel08242015423D

 14 13  0  0  0  0  0  0  0  0999 V2000
   -3.9582    0.2806   -0.0295 C   0  0  0  0  0  0  0  0  0  0  0  0
   -2.7024   -0.6306    0.0474 C   0  0  0  0  0  0  0  0  0  0  0  0
   -4.8855   -0.3075    0.3221 H   0  0  0  0  0  0  0  0  0  0  0  0
   -4.1032    1.1417   -1.0795 H   0  0  0  0  0  0  0  0  0  0  0  0
   -3.8407    0.7734    0.7058 H   0  0  0  0  0  0  0  0  0  0  0  0
   -1.3962    0.1644    0.0712 C   0  0  0  0  0  0  0  0  0  0  0  0
   -2.7157   -1.2677   -0.7364 H   0  0  0  0  0  0  0  0  0  0  0  0
   -2.8356   -1.3217    1.0072 H   0  0  0  0  0  0  0  0  0  0  0  0
   -0.1493   -0.6917   -0.0063 C   0  0  0  0  0  0  0  0  0  0  0  0
   -1.3021    0.9556    1.0078 H   0  0  0  0  0  0  0  0  0  0  0  0
   -1.4626    0.7177   -0.7571 H   0  0  0  0  0  0  0  0  0  0  0  0
   -0.0761   -1.1927    0.8194 H   0  0  0  0  0  0  0  0  0  0  0  0
    0.8477   -0.0516    0.0701 H   0  0  0  0  0  0  0  0  0  0  0  0
   -0.1924   -1.3727   -0.9291 H   0  0  0  0  0  0  0  0  0  0  0  0
  1  2  1  0  0  0  0
  1  3  1  0  0  0  0
  1  5  1  0  0  0  0
  2  6  1  0  0  0  0
  2  8  1  0  0  0  0
  4  1  1  0  0  0  0
  6 10  1  0  0  0  0
  7  2  1  0  0  0  0
  9 13  1  0  0  0  0
  9  6  1  0  0  0  0
  9 12  1  0  0  0  0
 11  6  1  0  0  0  0
 14  9  1  0  0  0  0
M  END
$$$$
