butane_opt
 OpenBabel08242015423D

 14 13  0  0  0  0  0  0  0  0999 V2000
   -3.9282    0.2569    0.0057 C   0  0  0  0  0  0  0  0  0  0  0  0
   -2.7131   -0.5954    0.0525 C   0  0  0  0  0  0  0  0  0  0  0  0
   -4.9300   -0.4104    0.2181 H   0  0  0  0  0  0  0  0  0  0  0  0
   -3.9785    1.0762   -1.0179 H   0  0  0  0  0  0  0  0  0  0  0  0
   -3.7989    0.6915    0.6606 H   0  0  0  0  0  0  0  0  0  0  0  0
   -1.4207    0.1958    0.0522 C   0  0  0  0  0  0  0  0  0  0  0  0
   -2.6554   -1.3136   -0.7911 H   0  0  0  0  0  0  0  0  0  0  0  0
   -2.7440   -1.1290    0.8620 H   0  0  0  0  0  0  0  0  0  0  0  0
   -0.1657   -0.7176    0.0008 C   0  0  0  0  0  0  0  0  0  0  0  0
   -1.3427    0.9039    0.9132 H   0  0  0  0  0  0  0  0  0  0  0  0
   -1.3724    0.8094   -0.8290 H   0  0  0  0  0  0  0  0  0  0  0  0
   -0.1481   -1.2664    0.8444 H   0  0  0  0  0  0  0  0  0  0  0  0
    0.7472   -0.1098    0.0885 H   0  0  0  0  0  0  0  0  0  0  0  0
   -0.0664   -1.4103   -0.8700 H   0  0  0  0  0  0  0  0  0  0  0  0
  1  2  1  0  0  0  0
  1  3  1  0  0  0  0
  1  5  1  0  0  0  0
  2  8  1  0  0  0  0
  4  1  1  0  0  0  0
  6  2  1  0  0  0  0
  6 10  1  0  0  0  0
  7  2  1  0  0  0  0
  9  6  1  0  0  0  0
  9 13  1  0  0  0  0
  9 12  1  0  0  0  0
 11  6  1  0  0  0  0
 14  9  1  0  0  0  0
M  END
$$$$
