butane_opt
 OpenBabel08242015423D

 14 13  0  0  0  0  0  0  0  0999 V2000
   -3.9602    0.2945    0.0272 C   0  0  0  0  0  0  0  0  0  0  0  0
   -2.6973   -0.6586    0.0160 C   0  0  0  0  0  0  0  0  0  0  0  0
   -4.8345   -0.2890    0.0451 H   0  0  0  0  0  0  0  0  0  0  0  0
   -4.0337    0.8502   -0.8047 H   0  0  0  0  0  0  0  0  0  0  0  0
   -3.9480    1.0454    0.9258 H   0  0  0  0  0  0  0  0  0  0  0  0
   -1.3887    0.1725   -0.0089 C   0  0  0  0  0  0  0  0  0  0  0  0
   -2.6380   -1.3274   -0.8178 H   0  0  0  0  0  0  0  0  0  0  0  0
   -2.7525   -1.2826    0.8974 H   0  0  0  0  0  0  0  0  0  0  0  0
   -0.1759   -0.6779    0.0513 C   0  0  0  0  0  0  0  0  0  0  0  0
   -1.3327    0.8553    0.8973 H   0  0  0  0  0  0  0  0  0  0  0  0
   -1.3469    0.7545   -0.8592 H   0  0  0  0  0  0  0  0  0  0  0  0
   -0.0970   -1.3515    0.9431 H   0  0  0  0  0  0  0  0  0  0  0  0
    0.7655   -0.0955   -0.0844 H   0  0  0  0  0  0  0  0  0  0  0  0
   -0.1545   -1.1782   -0.7055 H   0  0  0  0  0  0  0  0  0  0  0  0
  1  3  1  0  0  0  0
  1  5  1  0  0  0  0
  2  1  1  0  0  0  0
  2  8  1  0  0  0  0
  4  1  1  0  0  0  0
  6  2  1  0  0  0  0
  6  9  1  0  0  0  0
  6 10  1  0  0  0  0
  7  2  1  0  0  0  0
  9 12  1  0  0  0  0
 11  6  1  0  0  0  0
 13  9  1  0  0  0  0
 14  9  1  0  0  0  0
M  END
$$$$
