14
butane_opt
C  -3.926978   0.277868  -0.015183
C  -2.676544  -0.625023   0.060261
H  -4.883683  -0.319871   0.219669
H  -4.011946   1.075818  -1.016506
H  -3.968230   0.780429   0.705567
C  -1.395206   0.157665   0.050169
H  -2.662213  -1.281084  -0.768719
H  -2.754849  -1.262274   1.023373
C  -0.199575  -0.684093   0.008824
H  -1.379238   0.899703   0.941989
H  -1.334646   0.761950  -0.825357
H  -0.125782  -1.081614   0.775995
H   0.713293  -0.103348   0.042625
H  -0.227311  -1.467117  -0.941657
