14
butane_opt
C  -3.975311   0.292903  -0.012084
C  -2.703269  -0.646112   0.095130
H  -4.879155  -0.264277  -0.226788
H  -3.899263   0.794784  -0.869862
H  -4.081716   1.052444   0.931438
C  -1.374799   0.162287   0.028968
H  -2.675596  -1.268265  -0.701852
H  -2.734611  -1.344249   1.044084
C  -0.156491  -0.679352  -0.017853
H  -1.328959   0.866294   0.846874
H  -1.432227   0.745991  -0.815563
H  -0.181641  -1.237419   0.896054
H   0.759902  -0.044636   0.041783
H  -0.064689  -1.325174  -0.832886
