14
butane_opt
C  -3.942529   0.280499  -0.046232
C  -2.681353  -0.619768   0.100793
H  -4.862688  -0.353611  -0.038914
H  -3.934048   0.985726  -1.000060
H  -4.046947   0.863494   0.773366
C  -1.417591   0.157778   0.095357
H  -2.637228  -1.337178  -0.764179
H  -2.722601  -1.253177   0.975473
C  -0.167708  -0.675468  -0.032049
H  -1.221252   0.895630   0.989232
H  -1.477285   0.699171  -0.755390
H  -0.037173  -1.370740   0.881648
H   0.756162  -0.036068  -0.179020
H  -0.330068  -1.268339  -0.845208
