butane_opt
 OpenBabel08242015423D

 14 13  0  0  0  0  0  0  0  0999 V2000
   -3.9495    0.2566   -0.0287 C   0  0  0  0  0  0  0  0  0  0  0  0
   -2.7295   -0.5911    0.1100 C   0  0  0  0  0  0  0  0  0  0  0  0
   -4.9366   -0.4371   -0.1115 H   0  0  0  0  0  0  0  0  0  0  0  0
   -3.8661    0.8417   -0.9429 H   0  0  0  0  0  0  0  0  0  0  0  0
   -4.0431    0.8891    0.8271 H   0  0  0  0  0  0  0  0  0  0  0  0
   -1.4021    0.2011    0.0561 C   0  0  0  0  0  0  0  0  0  0  0  0
   -2.6929   -1.2338   -0.7527 H   0  0  0  0  0  0  0  0  0  0  0  0
   -2.7628   -1.2706    1.0579 H   0  0  0  0  0  0  0  0  0  0  0  0
   -0.1291   -0.7142   -0.0198 C   0  0  0  0  0  0  0  0  0  0  0  0
   -1.2820    0.9152    0.9127 H   0  0  0  0  0  0  0  0  0  0  0  0
   -1.4846    0.8438   -0.8637 H   0  0  0  0  0  0  0  0  0  0  0  0
   -0.1240   -1.2191    0.8006 H   0  0  0  0  0  0  0  0  0  0  0  0
    0.7202   -0.2029    0.0326 H   0  0  0  0  0  0  0  0  0  0  0  0
   -0.0104   -1.4503   -0.9379 H   0  0  0  0  0  0  0  0  0  0  0  0
  1  2  1  0  0  0  0
  1  5  1  0  0  0  0
  2  8  1  0  0  0  0
  3  1  1  0  0  0  0
  4  1  1  0  0  0  0
  6  2  1  0  0  0  0
  6 10  1  0  0  0  0
  7  2  1  0  0  0  0
  9 13  1  0  0  0  0
  9  6  1  0  0  0  0
  9 12  1  0  0  0  0
 11  6  1  0  0  0  0
 14  9  1  0  0  0  0
M  END
$$$$
