14
butane_opt
C  -3.943903   0.276595   0.007893
C  -2.685921  -0.622027   0.043371
H  -4.902620  -0.387405   0.150426
H  -3.975001   0.998240  -0.926819
H  -3.901646   0.879294   0.800296
C  -1.402023   0.170456   0.001781
H  -2.688031  -1.224424  -0.750329
H  -2.648952  -1.321489   0.990449
C  -0.167162  -0.675851   0.027785
H  -1.417333   0.826183   0.888839
H  -1.427584   0.717334  -0.820196
H  -0.194420  -1.160060   0.865275
H   0.713430  -0.075978   0.202831
H  -0.193169  -1.518422  -0.954242
