butane_opt
 OpenBabel08242015423D

 14 13  0  0  0  0  0  0  0  0999 V2000
   -3.9507    0.2833   -0.0201 C   0  0  0  0  0  0  0  0  0  0  0  0
   -2.7015   -0.6468    0.0906 C   0  0  0  0  0  0  0  0  0  0  0  0
   -4.8183   -0.3001   -0.0357 H   0  0  0  0  0  0  0  0  0  0  0  0
   -4.0311    0.9310   -0.8906 H   0  0  0  0  0  0  0  0  0  0  0  0
   -4.0750    0.9784    0.8399 H   0  0  0  0  0  0  0  0  0  0  0  0
   -1.3974    0.1715    0.0416 C   0  0  0  0  0  0  0  0  0  0  0  0
   -2.6378   -1.2439   -0.7011 H   0  0  0  0  0  0  0  0  0  0  0  0
   -2.7993   -1.3195    0.9795 H   0  0  0  0  0  0  0  0  0  0  0  0
   -0.1597   -0.6792   -0.0090 C   0  0  0  0  0  0  0  0  0  0  0  0
   -1.3042    0.8004    0.8700 H   0  0  0  0  0  0  0  0  0  0  0  0
   -1.3133    0.8018   -0.8660 H   0  0  0  0  0  0  0  0  0  0  0  0
   -0.1142   -1.1484    0.7928 H   0  0  0  0  0  0  0  0  0  0  0  0
    0.7232   -0.1110    0.1403 H   0  0  0  0  0  0  0  0  0  0  0  0
   -0.1400   -1.4071   -0.9291 H   0  0  0  0  0  0  0  0  0  0  0  0
  1  2  1  0  0  0  0
  1  5  1  0  0  0  0
  2  8  1  0  0  0  0
  3  1  1  0  0  0  0
  4  1  1  0  0  0  0
  6  2  1  0  0  0  0
  6 10  1  0  0  0  0
  7  2  1  0  0  0  0
  9  6  1  0  0  0  0
  9 13  1  0  0  0  0
  9 12  1  0  0  0  0
 11  6  1  0  0  0  0
 14  9  1  0  0  0  0
M  END
$$$$
