14
butane_opt
C  -3.961740   0.276994  -0.004377
C  -2.670888  -0.618803   0.071944
H  -4.798582  -0.282090  -0.225352
H  -3.869151   0.778712  -0.861708
H  -4.082112   1.088265   0.904341
C  -1.398738   0.150772   0.031228
H  -2.666449  -1.234759  -0.703016
H  -2.714494  -1.419370   1.091129
C  -0.184927  -0.671823   0.006706
H  -1.321879   0.838607   0.884035
H  -1.380214   0.770616  -0.849772
H  -0.093032  -1.252101   0.860450
H   0.756881  -0.055869  -0.026904
H  -0.267786  -1.335995  -0.886896
