butane_opt
 OpenBabel08242015423D

 14 13  0  0  0  0  0  0  0  0999 V2000
   -3.9077    0.2408    0.0483 C   0  0  0  0  0  0  0  0  0  0  0  0
   -2.7097   -0.5896   -0.0165 C   0  0  0  0  0  0  0  0  0  0  0  0
   -4.8574   -0.3379    0.2882 H   0  0  0  0  0  0  0  0  0  0  0  0
   -4.1205    1.0105   -0.9223 H   0  0  0  0  0  0  0  0  0  0  0  0
   -3.7471    0.8322    0.8991 H   0  0  0  0  0  0  0  0  0  0  0  0
   -1.4247    0.1985   -0.0107 C   0  0  0  0  0  0  0  0  0  0  0  0
   -2.6869   -1.3371   -0.9436 H   0  0  0  0  0  0  0  0  0  0  0  0
   -2.7970   -1.1687    0.8175 H   0  0  0  0  0  0  0  0  0  0  0  0
   -0.1737   -0.7112    0.0697 C   0  0  0  0  0  0  0  0  0  0  0  0
   -1.4042    0.8717    0.8231 H   0  0  0  0  0  0  0  0  0  0  0  0
   -1.3435    0.8419   -0.8867 H   0  0  0  0  0  0  0  0  0  0  0  0
   -0.1010   -1.3606    0.9993 H   0  0  0  0  0  0  0  0  0  0  0  0
    0.7459   -0.1085    0.0121 H   0  0  0  0  0  0  0  0  0  0  0  0
   -0.1146   -1.3741   -0.7411 H   0  0  0  0  0  0  0  0  0  0  0  0
  1  3  1  0  0  0  0
  1  5  1  0  0  0  0
  2  6  1  0  0  0  0
  2  1  1  0  0  0  0
  2  8  1  0  0  0  0
  4  1  1  0  0  0  0
  6  9  1  0  0  0  0
  6 10  1  0  0  0  0
  7  2  1  0  0  0  0
  9 12  1  0  0  0  0
 11  6  1  0  0  0  0
 13  9  1  0  0  0  0
 14  9  1  0  0  0  0
M  END
$$$$
