butane_opt
 OpenBabel08242015423D

 14 13  0  0  0  0  0  0  0  0999 V2000
   -3.9643    0.2540    0.0565 C   0  0  0  0  0  0  0  0  0  0  0  0
   -2.7025   -0.5933    0.0214 C   0  0  0  0  0  0  0  0  0  0  0  0
   -4.8747   -0.3545   -0.0257 H   0  0  0  0  0  0  0  0  0  0  0  0
   -3.9959    0.7771   -0.7785 H   0  0  0  0  0  0  0  0  0  0  0  0
   -3.9515    0.9667    0.9880 H   0  0  0  0  0  0  0  0  0  0  0  0
   -1.3974    0.1936   -0.0461 C   0  0  0  0  0  0  0  0  0  0  0  0
   -2.8299   -1.3640   -0.9101 H   0  0  0  0  0  0  0  0  0  0  0  0
   -2.7172   -1.1702    0.8442 H   0  0  0  0  0  0  0  0  0  0  0  0
   -0.1317   -0.7016    0.0740 C   0  0  0  0  0  0  0  0  0  0  0  0
   -1.3999    0.8202    0.7543 H   0  0  0  0  0  0  0  0  0  0  0  0
   -1.3826    0.9348   -1.0111 H   0  0  0  0  0  0  0  0  0  0  0  0
   -0.1993   -1.3579    0.9997 H   0  0  0  0  0  0  0  0  0  0  0  0
    0.7510   -0.1203    0.1093 H   0  0  0  0  0  0  0  0  0  0  0  0
   -0.0664   -1.4446   -0.7978 H   0  0  0  0  0  0  0  0  0  0  0  0
  1  5  1  0  0  0  0
  2  1  1  0  0  0  0
  2  8  1  0  0  0  0
  3  1  1  0  0  0  0
  4  1  1  0  0  0  0
  6  2  1  0  0  0  0
  6  9  1  0  0  0  0
  6 10  1  0  0  0  0
  7  2  1  0  0  0  0
  9 13  1  0  0  0  0
  9 12  1  0  0  0  0
 11  6  1  0  0  0  0
 14  9  1  0  0  0  0
M  END
$$$$
