butane_opt
 OpenBabel08242015423D

 14 13  0  0  0  0  0  0  0  0999 V2000
   -3.9175    0.2371   -0.0248 C   0  0  0  0  0  0  0  0  0  0  0  0
   -2.7103   -0.5762    0.0623 C   0  0  0  0  0  0  0  0  0  0  0  0
   -4.8706   -0.4296    0.1532 H   0  0  0  0  0  0  0  0  0  0  0  0
   -4.0160    1.0538   -1.0127 H   0  0  0  0  0  0  0  0  0  0  0  0
   -3.8126    0.7465    0.7253 H   0  0  0  0  0  0  0  0  0  0  0  0
   -1.4304    0.1898    0.0611 C   0  0  0  0  0  0  0  0  0  0  0  0
   -2.7001   -1.1103   -0.6603 H   0  0  0  0  0  0  0  0  0  0  0  0
   -2.6644   -1.3074    1.0058 H   0  0  0  0  0  0  0  0  0  0  0  0
   -0.1502   -0.7027   -0.0074 C   0  0  0  0  0  0  0  0  0  0  0  0
   -1.4612    0.9194    0.9652 H   0  0  0  0  0  0  0  0  0  0  0  0
   -1.4398    0.7627   -0.7786 H   0  0  0  0  0  0  0  0  0  0  0  0
   -0.1588   -1.2035    0.7787 H   0  0  0  0  0  0  0  0  0  0  0  0
    0.7446   -0.1391    0.1261 H   0  0  0  0  0  0  0  0  0  0  0  0
   -0.1325   -1.5508   -1.0086 H   0  0  0  0  0  0  0  0  0  0  0  0
  1  2  1  0  0  0  0
  1  3  1  0  0  0  0
  1  5  1  0  0  0  0
  2  8  1  0  0  0  0
  4  1  1  0  0  0  0
  6  2  1  0  0  0  0
  6 10  1  0  0  0  0
  7  2  1  0  0  0  0
  9  6  1  0  0  0  0
  9 13  1  0  0  0  0
  9 12  1  0  0  0  0
 11  6  1  0  0  0  0
 14  9  1  0  0  0  0
M  END
$$$$
