14
butane_opt
C  -3.927372   0.256459   0.058732
C  -2.700398  -0.579024  -0.015337
H  -4.876618  -0.392524   0.038269
H  -3.994758   0.756643  -0.792964
H  -3.944080   0.924618   0.941449
C  -1.417332   0.176549  -0.003373
H  -2.678925  -1.427034  -0.961393
H  -2.613128  -1.104165   0.819596
C  -0.170026  -0.697898   0.055253
H  -1.425541   0.859951   0.832295
H  -1.367003   0.850442  -0.920766
H  -0.146895  -1.576200   1.172290
H   0.763877  -0.104723  -0.198532
H  -0.147050  -1.132289  -0.609561
