butane_opt
 OpenBabel08242015423D

 14 13  0  0  0  0  0  0  0  0999 V2000
   -3.9673    0.2790   -0.0308 C   0  0  0  0  0  0  0  0  0  0  0  0
   -2.7029   -0.6543    0.1201 C   0  0  0  0  0  0  0  0  0  0  0  0
   -4.8250   -0.2025   -0.2009 H   0  0  0  0  0  0  0  0  0  0  0  0
   -3.8327    0.8157   -0.9026 H   0  0  0  0  0  0  0  0  0  0  0  0
   -4.1761    1.0983    0.9079 H   0  0  0  0  0  0  0  0  0  0  0  0
   -1.3708    0.1758    0.0345 C   0  0  0  0  0  0  0  0  0  0  0  0
   -2.7281   -1.3308   -0.7525 H   0  0  0  0  0  0  0  0  0  0  0  0
   -2.7739   -1.2902    1.0464 H   0  0  0  0  0  0  0  0  0  0  0  0
   -0.1531   -0.6865   -0.0114 C   0  0  0  0  0  0  0  0  0  0  0  0
   -1.2777    0.8493    0.9351 H   0  0  0  0  0  0  0  0  0  0  0  0
   -1.5259    0.8683   -0.8593 H   0  0  0  0  0  0  0  0  0  0  0  0
   -0.1326   -1.1942    0.8171 H   0  0  0  0  0  0  0  0  0  0  0  0
    0.7676   -0.0789   -0.0244 H   0  0  0  0  0  0  0  0  0  0  0  0
   -0.1955   -1.3705   -0.8595 H   0  0  0  0  0  0  0  0  0  0  0  0
  1  2  1  0  0  0  0
  1  5  1  0  0  0  0
  2  8  1  0  0  0  0
  3  1  1  0  0  0  0
  4  1  1  0  0  0  0
  6  2  1  0  0  0  0
  6 10  1  0  0  0  0
  7  2  1  0  0  0  0
  9  6  1  0  0  0  0
  9 12  1  0  0  0  0
 11  6  1  0  0  0  0
 13  9  1  0  0  0  0
 14  9  1  0  0  0  0
M  END
$$$$
