butane_opt
 OpenBabel08242015423D

 14 13  0  0  0  0  0  0  0  0999 V2000
   -3.9225    0.2409    0.0373 C   0  0  0  0  0  0  0  0  0  0  0  0
   -2.6841   -0.6009    0.0604 C   0  0  0  0  0  0  0  0  0  0  0  0
   -4.8454   -0.3229   -0.2397 H   0  0  0  0  0  0  0  0  0  0  0  0
   -3.8012    0.6680   -0.7669 H   0  0  0  0  0  0  0  0  0  0  0  0
   -4.0135    1.1365    1.0358 H   0  0  0  0  0  0  0  0  0  0  0  0
   -1.4280    0.2190   -0.0255 C   0  0  0  0  0  0  0  0  0  0  0  0
   -2.7660   -1.3303   -0.8534 H   0  0  0  0  0  0  0  0  0  0  0  0
   -2.7739   -1.1979    0.8745 H   0  0  0  0  0  0  0  0  0  0  0  0
   -0.1658   -0.7114    0.0494 C   0  0  0  0  0  0  0  0  0  0  0  0
   -1.4383    0.7681    0.7283 H   0  0  0  0  0  0  0  0  0  0  0  0
   -1.4620    0.8692   -0.9397 H   0  0  0  0  0  0  0  0  0  0  0  0
   -0.1674   -1.3840    1.0003 H   0  0  0  0  0  0  0  0  0  0  0  0
    0.7564   -0.1114   -0.0438 H   0  0  0  0  0  0  0  0  0  0  0  0
   -0.1091   -1.3363   -0.7863 H   0  0  0  0  0  0  0  0  0  0  0  0
  1  2  1  0  0  0  0
  1  5  1  0  0  0  0
  2  8  1  0  0  0  0
  3  1  1  0  0  0  0
  4  1  1  0  0  0  0
  6  9  1  0  0  0  0
  6  2  1  0  0  0  0
  6 10  1  0  0  0  0
  7  2  1  0  0  0  0
  9 12  1  0  0  0  0
 11  6  1  0  0  0  0
 13  9  1  0  0  0  0
 14  9  1  0  0  0  0
M  END
$$$$
