butane_opt
 OpenBabel08242015423D

 14 13  0  0  0  0  0  0  0  0999 V2000
   -3.9682    0.2748    0.0489 C   0  0  0  0  0  0  0  0  0  0  0  0
   -2.6836   -0.6341   -0.0190 C   0  0  0  0  0  0  0  0  0  0  0  0
   -4.9182   -0.3156   -0.0023 H   0  0  0  0  0  0  0  0  0  0  0  0
   -4.0972    0.8778   -0.8035 H   0  0  0  0  0  0  0  0  0  0  0  0
   -3.9304    1.0253    0.9758 H   0  0  0  0  0  0  0  0  0  0  0  0
   -1.3953    0.1720    0.0066 C   0  0  0  0  0  0  0  0  0  0  0  0
   -2.6857   -1.3426   -0.8857 H   0  0  0  0  0  0  0  0  0  0  0  0
   -2.8145   -1.2328    0.8608 H   0  0  0  0  0  0  0  0  0  0  0  0
   -0.1454   -0.6893    0.0595 C   0  0  0  0  0  0  0  0  0  0  0  0
   -1.4156    0.8403    0.8456 H   0  0  0  0  0  0  0  0  0  0  0  0
   -1.3760    0.8612   -0.8731 H   0  0  0  0  0  0  0  0  0  0  0  0
   -0.0758   -1.5007    1.0508 H   0  0  0  0  0  0  0  0  0  0  0  0
    0.8192   -0.0203   -0.2057 H   0  0  0  0  0  0  0  0  0  0  0  0
   -0.2195   -1.1373   -0.6515 H   0  0  0  0  0  0  0  0  0  0  0  0
  1  5  1  0  0  0  0
  2  6  1  0  0  0  0
  2  1  1  0  0  0  0
  2  8  1  0  0  0  0
  3  1  1  0  0  0  0
  4  1  1  0  0  0  0
  6  9  1  0  0  0  0
  6 10  1  0  0  0  0
  7  2  1  0  0  0  0
  9 12  1  0  0  0  0
 11  6  1  0  0  0  0
 13  9  1  0  0  0  0
 14  9  1  0  0  0  0
M  END
$$$$
