14
butane_opt
C  -3.929870   0.253939   0.043164
C  -2.704235  -0.616219  -0.004635
H  -4.840504  -0.314590   0.145063
H  -4.004756   0.872656  -0.819112
H  -3.869533   0.957170   0.950451
C  -1.412413   0.199503  -0.018741
H  -2.708700  -1.287620  -0.867314
H  -2.748215  -1.195379   0.841868
C  -0.165252  -0.706762   0.066161
H  -1.419444   0.889006   0.827991
H  -1.364139   0.841918  -0.907556
H  -0.144103  -1.393932   1.024485
H   0.767173  -0.103622  -0.016136
H  -0.148971  -1.305707  -0.757303
