14
butane_opt
C  -3.967346   0.279020  -0.030823
C  -2.702886  -0.654309   0.120071
H  -4.825020  -0.202549  -0.200916
H  -3.832709   0.815690  -0.902559
H  -4.176140   1.098257   0.907946
C  -1.370830   0.175791   0.034477
H  -2.728118  -1.330830  -0.752511
H  -2.773942  -1.290173   1.046373
C  -0.153081  -0.686472  -0.011423
H  -1.277734   0.849317   0.935139
H  -1.525865   0.868329  -0.859305
H  -0.132566  -1.194228   0.817147
H   0.767570  -0.078915  -0.024362
H  -0.195536  -1.370504  -0.859453
