butane_opt
 OpenBabel08242015423D

 14 13  0  0  0  0  0  0  0  0999 V2000
   -3.9272    0.2757   -0.0204 C   0  0  0  0  0  0  0  0  0  0  0  0
   -2.6844   -0.6397    0.0689 C   0  0  0  0  0  0  0  0  0  0  0  0
   -4.8210   -0.2913    0.1974 H   0  0  0  0  0  0  0  0  0  0  0  0
   -3.9945    1.1113   -1.0380 H   0  0  0  0  0  0  0  0  0  0  0  0
   -4.0206    0.8273    0.7726 H   0  0  0  0  0  0  0  0  0  0  0  0
   -1.4062    0.1704    0.0577 C   0  0  0  0  0  0  0  0  0  0  0  0
   -2.6225   -1.3112   -0.7656 H   0  0  0  0  0  0  0  0  0  0  0  0
   -2.7816   -1.2802    0.9873 H   0  0  0  0  0  0  0  0  0  0  0  0
   -0.1795   -0.6822   -0.0186 C   0  0  0  0  0  0  0  0  0  0  0  0
   -1.2940    0.9635    0.9435 H   0  0  0  0  0  0  0  0  0  0  0  0
   -1.4205    0.7130   -0.7610 H   0  0  0  0  0  0  0  0  0  0  0  0
   -0.2752   -1.2348    0.8666 H   0  0  0  0  0  0  0  0  0  0  0  0
    0.7836   -0.0722    0.0634 H   0  0  0  0  0  0  0  0  0  0  0  0
   -0.1977   -1.3835   -0.8875 H   0  0  0  0  0  0  0  0  0  0  0  0
  1  2  1  0  0  0  0
  1  3  1  0  0  0  0
  1  5  1  0  0  0  0
  2  8  1  0  0  0  0
  4  1  1  0  0  0  0
  6  2  1  0  0  0  0
  6 10  1  0  0  0  0
  7  2  1  0  0  0  0
  9  6  1  0  0  0  0
  9 13  1  0  0  0  0
  9 12  1  0  0  0  0
 11  6  1  0  0  0  0
 14  9  1  0  0  0  0
M  END
$$$$
