14
butane_opt
C  -3.922480   0.240905   0.037273
C  -2.684115  -0.600864   0.060434
H  -4.845408  -0.322875  -0.239674
H  -3.801230   0.668009  -0.766887
H  -4.013474   1.136501   1.035843
C  -1.427960   0.218964  -0.025452
H  -2.765970  -1.330348  -0.853443
H  -2.773864  -1.197886   0.874533
C  -0.165808  -0.711369   0.049370
H  -1.438286   0.768064   0.728284
H  -1.461978   0.869206  -0.939710
H  -0.167404  -1.383983   1.000301
H   0.756373  -0.111413  -0.043805
H  -0.109092  -1.336278  -0.786310
