14
butane_opt
C  -3.968248   0.274753   0.048864
C  -2.683620  -0.634141  -0.018965
H  -4.918165  -0.315577  -0.002263
H  -4.097199   0.877770  -0.803454
H  -3.930410   1.025254   0.975798
C  -1.395265   0.171999   0.006552
H  -2.685658  -1.342588  -0.885650
H  -2.814498  -1.232790   0.860834
C  -0.145413  -0.689252   0.059524
H  -1.415551   0.840322   0.845607
H  -1.376010   0.861224  -0.873071
H  -0.075832  -1.500651   1.050814
H   0.819227  -0.020338  -0.205675
H  -0.219522  -1.137265  -0.651466
