14
butane_opt
C  -3.971632   0.270253  -0.024645
C  -2.699174  -0.622359   0.059718
H  -4.836701  -0.310990   0.184233
H  -4.027730   1.067785  -1.063646
H  -3.946203   0.799899   0.760247
C  -1.413329   0.175499   0.066823
H  -2.729913  -1.265591  -0.786926
H  -2.699596  -1.303027   1.002952
C  -0.135221  -0.680764   0.001410
H  -1.361418   0.865576   0.948924
H  -1.367745   0.699713  -0.724096
H  -0.067939  -1.223173   0.832712
H   0.802138  -0.043164  -0.091980
H  -0.165188  -1.447372  -0.899906
