butane_opt
 OpenBabel08242015423D

 14 13  0  0  0  0  0  0  0  0999 V2000
   -3.9366    0.2523    0.0446 C   0  0  0  0  0  0  0  0  0  0  0  0
   -2.7278   -0.5951    0.0127 C   0  0  0  0  0  0  0  0  0  0  0  0
   -4.9122   -0.3700    0.0099 H   0  0  0  0  0  0  0  0  0  0  0  0
   -3.9942    0.7808   -0.8114 H   0  0  0  0  0  0  0  0  0  0  0  0
   -3.9303    1.0008    0.9127 H   0  0  0  0  0  0  0  0  0  0  0  0
   -1.4024    0.2070   -0.0272 C   0  0  0  0  0  0  0  0  0  0  0  0
   -2.8079   -1.2766   -0.8363 H   0  0  0  0  0  0  0  0  0  0  0  0
   -2.6567   -1.3160    0.9902 H   0  0  0  0  0  0  0  0  0  0  0  0
   -0.1430   -0.7078    0.0586 C   0  0  0  0  0  0  0  0  0  0  0  0
   -1.4303    0.8480    0.7770 H   0  0  0  0  0  0  0  0  0  0  0  0
   -1.3274    0.8738   -0.9266 H   0  0  0  0  0  0  0  0  0  0  0  0
   -0.0653   -1.3032    0.9177 H   0  0  0  0  0  0  0  0  0  0  0  0
    0.6921   -0.1674    0.1584 H   0  0  0  0  0  0  0  0  0  0  0  0
   -0.0607   -1.4361   -0.8186 H   0  0  0  0  0  0  0  0  0  0  0  0
  1  5  1  0  0  0  0
  2  1  1  0  0  0  0
  2  8  1  0  0  0  0
  3  1  1  0  0  0  0
  4  1  1  0  0  0  0
  6  2  1  0  0  0  0
  6  9  1  0  0  0  0
  6 10  1  0  0  0  0
  7  2  1  0  0  0  0
  9 13  1  0  0  0  0
  9 12  1  0  0  0  0
 11  6  1  0  0  0  0
 14  9  1  0  0  0  0
M  END
$$$$
