14
butane_opt
C  -3.980453   0.273467   0.083290
C  -2.700355  -0.629224  -0.042481
H  -4.855149  -0.250405   0.253327
H  -4.143873   0.970996  -0.862431
H  -3.859785   0.922651   0.943954
C  -1.380563   0.158814  -0.054145
H  -2.740888  -1.352834  -0.907780
H  -2.598120  -1.167200   0.742300
C  -0.160597  -0.675406   0.115367
H  -1.385275   0.764580   0.743594
H  -1.254135   0.852049  -0.992471
H  -0.198416  -1.275978   0.997812
H   0.787337  -0.058036   0.081432
H  -0.119409  -1.399946  -0.798506
