butane_opt
 OpenBabel08242015423D

 14 13  0  0  0  0  0  0  0  0999 V2000
   -3.9681    0.2837    0.0381 C   0  0  0  0  0  0  0  0  0  0  0  0
   -2.6849   -0.6427    0.0241 C   0  0  0  0  0  0  0  0  0  0  0  0
   -4.8266   -0.2675   -0.0447 H   0  0  0  0  0  0  0  0  0  0  0  0
   -3.9786    0.8210   -0.7508 H   0  0  0  0  0  0  0  0  0  0  0  0
   -4.0612    1.0464    0.9696 H   0  0  0  0  0  0  0  0  0  0  0  0
   -1.3805    0.1717   -0.0183 C   0  0  0  0  0  0  0  0  0  0  0  0
   -2.7523   -1.3082   -0.8451 H   0  0  0  0  0  0  0  0  0  0  0  0
   -2.7159   -1.2963    0.9205 H   0  0  0  0  0  0  0  0  0  0  0  0
   -0.1650   -0.6743    0.0401 C   0  0  0  0  0  0  0  0  0  0  0  0
   -1.3989    0.8128    0.7593 H   0  0  0  0  0  0  0  0  0  0  0  0
   -1.2746    0.7853   -0.8736 H   0  0  0  0  0  0  0  0  0  0  0  0
   -0.1826   -1.3590    0.9951 H   0  0  0  0  0  0  0  0  0  0  0  0
    0.6923   -0.1029    0.0860 H   0  0  0  0  0  0  0  0  0  0  0  0
   -0.1416   -1.2677   -0.7677 H   0  0  0  0  0  0  0  0  0  0  0  0
  1  5  1  0  0  0  0
  2  1  1  0  0  0  0
  2  8  1  0  0  0  0
  3  1  1  0  0  0  0
  4  1  1  0  0  0  0
  6  2  1  0  0  0  0
  6  9  1  0  0  0  0
  6 10  1  0  0  0  0
  7  2  1  0  0  0  0
  9 13  1  0  0  0  0
  9 12  1  0  0  0  0
 11  6  1  0  0  0  0
 14  9  1  0  0  0  0
M  END
$$$$
