14
butane_opt
C  -3.967228   0.265941   0.075153
C  -2.711904  -0.598873   0.002458
H  -4.915859  -0.363320   0.174124
H  -4.028074   0.790175  -0.767780
H  -3.935923   0.938629   0.979157
C  -1.372270   0.191521  -0.081517
H  -2.772138  -1.376937  -0.959245
H  -2.690506  -1.142269   0.820431
C  -0.147920  -0.703531   0.090831
H  -1.470462   0.733081   0.689094
H  -1.327241   0.880199  -1.019767
H  -0.253062  -1.222917   0.962484
H   0.704281  -0.129077   0.302388
H   0.065195  -1.449225  -0.782488
