14
butane_opt
C  -3.961897   0.288435   0.008634
C  -2.685517  -0.659575   0.025595
H  -4.819442  -0.263308   0.260014
H  -4.123647   1.109130  -0.981997
H  -3.960728   0.752619   0.725757
C  -1.404553   0.169943   0.022095
H  -2.753915  -1.319161  -0.795576
H  -2.700778  -1.292448   0.906617
C  -0.146616  -0.669754   0.027015
H  -1.333820   0.975881   0.983705
H  -1.412819   0.732699  -0.780921
H  -0.121972  -1.249874   0.887159
H   0.799428  -0.075403   0.055992
H  -0.223077  -1.375893  -0.842855
