butane_opt
 OpenBabel08242015423D

 14 13  0  0  0  0  0  0  0  0999 V2000
   -3.9746    0.2869    0.0495 C   0  0  0  0  0  0  0  0  0  0  0  0
   -2.6956   -0.6454    0.0305 C   0  0  0  0  0  0  0  0  0  0  0  0
   -4.8150   -0.2538   -0.2502 H   0  0  0  0  0  0  0  0  0  0  0  0
   -3.9158    0.7617   -0.7843 H   0  0  0  0  0  0  0  0  0  0  0  0
   -4.0669    1.1459    1.0399 H   0  0  0  0  0  0  0  0  0  0  0  0
   -1.3830    0.1569   -0.0255 C   0  0  0  0  0  0  0  0  0  0  0  0
   -2.8054   -1.3189   -0.8150 H   0  0  0  0  0  0  0  0  0  0  0  0
   -2.7353   -1.3152    0.9514 H   0  0  0  0  0  0  0  0  0  0  0  0
   -0.1562   -0.6718    0.0559 C   0  0  0  0  0  0  0  0  0  0  0  0
   -1.3387    0.8084    0.7598 H   0  0  0  0  0  0  0  0  0  0  0  0
   -1.3333    0.8705   -0.9815 H   0  0  0  0  0  0  0  0  0  0  0  0
   -0.0971   -1.2690    0.9853 H   0  0  0  0  0  0  0  0  0  0  0  0
    0.7199   -0.1146    0.0049 H   0  0  0  0  0  0  0  0  0  0  0  0
   -0.1373   -1.3023   -0.7814 H   0  0  0  0  0  0  0  0  0  0  0  0
  1  5  1  0  0  0  0
  2  1  1  0  0  0  0
  2  8  1  0  0  0  0
  3  1  1  0  0  0  0
  4  1  1  0  0  0  0
  6  2  1  0  0  0  0
  6  9  1  0  0  0  0
  6 10  1  0  0  0  0
  7  2  1  0  0  0  0
  9 12  1  0  0  0  0
 11  6  1  0  0  0  0
 13  9  1  0  0  0  0
 14  9  1  0  0  0  0
M  END
$$$$
