14
butane_opt
C  -3.939886   0.271782   0.034033
C  -2.696131  -0.621184   0.013654
H  -4.858095  -0.315249   0.167868
H  -4.056652   0.991773  -0.905937
H  -3.955351   0.885087   0.832558
C  -1.405303   0.168674  -0.009964
H  -2.718278  -1.337207  -0.847423
H  -2.674231  -1.257684   0.920334
C  -0.162369  -0.682751   0.045214
H  -1.392111   0.890465   0.886148
H  -1.396487   0.728315  -0.851022
H  -0.168252  -1.284738   0.960654
H   0.795036  -0.054359   0.078253
H  -0.156657  -1.347014  -0.804019
