14
butane_opt
C  -3.920739   0.253008  -0.024881
C  -2.707730  -0.594441   0.073501
H  -4.861074  -0.406758  -0.070456
H  -3.850101   0.855266  -0.881897
H  -3.967006   0.905747   0.806548
C  -1.417623   0.200630   0.069247
H  -2.681341  -1.224259  -0.742364
H  -2.784704  -1.266324   1.001315
C  -0.143027  -0.710834  -0.015436
H  -1.393726   0.905219   0.949714
H  -1.587345   0.741142  -0.778322
H  -0.136306  -1.341650   0.934415
H   0.713159  -0.137059  -0.193754
H  -0.197891  -1.288866  -0.809559
