butane_opt
 OpenBabel08242015423D

 14 13  0  0  0  0  0  0  0  0999 V2000
   -3.9527    0.2689   -0.0188 C   0  0  0  0  0  0  0  0  0  0  0  0
   -2.6760   -0.6130    0.0878 C   0  0  0  0  0  0  0  0  0  0  0  0
   -4.8757   -0.2947   -0.0098 H   0  0  0  0  0  0  0  0  0  0  0  0
   -3.8797    0.9338   -0.9868 H   0  0  0  0  0  0  0  0  0  0  0  0
   -3.9884    0.9270    0.8314 H   0  0  0  0  0  0  0  0  0  0  0  0
   -1.4136    0.1490    0.0345 C   0  0  0  0  0  0  0  0  0  0  0  0
   -2.6798   -1.2040   -0.6554 H   0  0  0  0  0  0  0  0  0  0  0  0
   -2.6527   -1.3356    1.0266 H   0  0  0  0  0  0  0  0  0  0  0  0
   -0.1822   -0.6750   -0.0208 C   0  0  0  0  0  0  0  0  0  0  0  0
   -1.2760    0.9053    0.9633 H   0  0  0  0  0  0  0  0  0  0  0  0
   -1.4067    0.7454   -0.8291 H   0  0  0  0  0  0  0  0  0  0  0  0
   -0.2439   -1.1831    0.8394 H   0  0  0  0  0  0  0  0  0  0  0  0
    0.7742   -0.0522    0.1854 H   0  0  0  0  0  0  0  0  0  0  0  0
   -0.1109   -1.4700   -0.9341 H   0  0  0  0  0  0  0  0  0  0  0  0
  1  3  1  0  0  0  0
  1  2  1  0  0  0  0
  1  5  1  0  0  0  0
  2  8  1  0  0  0  0
  4  1  1  0  0  0  0
  6  2  1  0  0  0  0
  6 10  1  0  0  0  0
  7  2  1  0  0  0  0
  9  6  1  0  0  0  0
  9 13  1  0  0  0  0
  9 12  1  0  0  0  0
 11  6  1  0  0  0  0
 14  9  1  0  0  0  0
M  END
$$$$
