14
butane_opt
C  -3.943472   0.258092   0.034734
C  -2.707743  -0.587895  -0.010413
H  -4.862152  -0.368081  -0.003169
H  -3.974666   0.746933  -0.744754
H  -3.921619   0.981976   0.924458
C  -1.406540   0.183451   0.012797
H  -2.737747  -1.247919  -0.881028
H  -2.681024  -1.248407   0.921568
C  -0.161915  -0.704639   0.054533
H  -1.361906   0.867986   0.891760
H  -1.299677   0.848700  -0.883347
H  -0.081940  -1.523244   1.062735
H   0.748819  -0.122526  -0.236706
H  -0.206040  -1.202584  -0.694954
