butane_opt
 OpenBabel08242015423D

 14 13  0  0  0  0  0  0  0  0999 V2000
   -3.9258    0.2463   -0.0067 C   0  0  0  0  0  0  0  0  0  0  0  0
   -2.7070   -0.5818    0.0952 C   0  0  0  0  0  0  0  0  0  0  0  0
   -4.9364   -0.4078   -0.1893 H   0  0  0  0  0  0  0  0  0  0  0  0
   -3.7742    0.7059   -0.8059 H   0  0  0  0  0  0  0  0  0  0  0  0
   -4.0783    1.0647    0.9359 H   0  0  0  0  0  0  0  0  0  0  0  0
   -1.4237    0.1826    0.0118 C   0  0  0  0  0  0  0  0  0  0  0  0
   -2.6465   -1.2996   -0.7904 H   0  0  0  0  0  0  0  0  0  0  0  0
   -2.6930   -1.2022    0.9506 H   0  0  0  0  0  0  0  0  0  0  0  0
   -0.1582   -0.6997    0.0151 C   0  0  0  0  0  0  0  0  0  0  0  0
   -1.2935    0.8453    0.8600 H   0  0  0  0  0  0  0  0  0  0  0  0
   -1.5046    0.9096   -0.9173 H   0  0  0  0  0  0  0  0  0  0  0  0
   -0.0881   -1.3329    0.9136 H   0  0  0  0  0  0  0  0  0  0  0  0
    0.7123   -0.1234   -0.0488 H   0  0  0  0  0  0  0  0  0  0  0  0
   -0.1333   -1.4257   -0.8256 H   0  0  0  0  0  0  0  0  0  0  0  0
  1  2  1  0  0  0  0
  1  5  1  0  0  0  0
  2  8  1  0  0  0  0
  3  1  1  0  0  0  0
  4  1  1  0  0  0  0
  6  9  1  0  0  0  0
  6  2  1  0  0  0  0
  6 10  1  0  0  0  0
  7  2  1  0  0  0  0
  9 12  1  0  0  0  0
 11  6  1  0  0  0  0
 13  9  1  0  0  0  0
 14  9  1  0  0  0  0
M  END
$$$$
