14
butane_opt
C  -3.942979   0.282991  -0.043849
C  -2.707989  -0.646395   0.078482
H  -4.813065  -0.285311  -0.071720
H  -4.009012   0.950232  -0.952675
H  -4.080347   1.005777   0.836870
C  -1.402042   0.169814   0.087152
H  -2.714481  -1.254503  -0.697842
H  -2.753720  -1.384909   1.087123
C  -0.156664  -0.675323  -0.020513
H  -1.284792   0.927514   0.983953
H  -1.325708   0.740652  -0.746915
H  -0.045259  -1.321317   0.877419
H   0.778401  -0.099316  -0.235435
H  -0.257188  -1.314268  -0.868120
