14
butane_opt
C  -3.936842   0.271719   0.004217
C  -2.689516  -0.628798   0.038607
H  -4.852006  -0.345642   0.076219
H  -3.996546   0.934013  -0.932759
H  -3.940692   0.935125   0.853200
C  -1.407654   0.175187   0.031605
H  -2.674250  -1.292204  -0.814914
H  -2.695529  -1.290478   0.924798
C  -0.171488  -0.679823   0.025073
H  -1.363734   0.918521   0.920042
H  -1.434020   0.781860  -0.826728
H  -0.064710  -1.355922   0.949196
H   0.715503  -0.100113  -0.079532
H  -0.250564  -1.314676  -0.814936
