14
butane_opt
C  -3.935366   0.294338   0.067009
C  -2.687800  -0.647310  -0.036938
H  -4.827007  -0.326103   0.187119
H  -4.108624   0.935249  -0.816915
H  -3.873915   0.898826   0.922994
C  -1.407990   0.167419  -0.031747
H  -2.685346  -1.319294  -0.881183
H  -2.566417  -1.353282   0.841370
C  -0.192730  -0.669769   0.082136
H  -1.383018   0.850980   0.822369
H  -1.320383   0.819510  -0.949758
H  -0.190138  -1.329312   1.025803
H   0.759539  -0.054087   0.123718
H  -0.153898  -1.318325  -0.801221
