butane_opt
 OpenBabel08242015423D

 14 13  0  0  0  0  0  0  0  0999 V2000
   -3.9471    0.2639    0.0456 C   0  0  0  0  0  0  0  0  0  0  0  0
   -2.7149   -0.6059    0.0024 C   0  0  0  0  0  0  0  0  0  0  0  0
   -4.8473   -0.3388    0.1730 H   0  0  0  0  0  0  0  0  0  0  0  0
   -4.0263    0.9289   -0.8835 H   0  0  0  0  0  0  0  0  0  0  0  0
   -3.9153    0.8565    0.8692 H   0  0  0  0  0  0  0  0  0  0  0  0
   -1.3951    0.1791   -0.0190 C   0  0  0  0  0  0  0  0  0  0  0  0
   -2.7606   -1.3099   -0.8560 H   0  0  0  0  0  0  0  0  0  0  0  0
   -2.7208   -1.2123    0.8677 H   0  0  0  0  0  0  0  0  0  0  0  0
   -0.1511   -0.7007    0.0642 C   0  0  0  0  0  0  0  0  0  0  0  0
   -1.4344    0.9414    0.8685 H   0  0  0  0  0  0  0  0  0  0  0  0
   -1.3813    0.7920   -0.9146 H   0  0  0  0  0  0  0  0  0  0  0  0
   -0.1445   -1.3148    0.9454 H   0  0  0  0  0  0  0  0  0  0  0  0
    0.7750   -0.0932    0.0283 H   0  0  0  0  0  0  0  0  0  0  0  0
   -0.0757   -1.3518   -0.7835 H   0  0  0  0  0  0  0  0  0  0  0  0
  1  3  1  0  0  0  0
  1  5  1  0  0  0  0
  2  1  1  0  0  0  0
  2  8  1  0  0  0  0
  4  1  1  0  0  0  0
  6  2  1  0  0  0  0
  6  9  1  0  0  0  0
  6 10  1  0  0  0  0
  7  2  1  0  0  0  0
  9 12  1  0  0  0  0
 11  6  1  0  0  0  0
 13  9  1  0  0  0  0
 14  9  1  0  0  0  0
M  END
$$$$
