14
butane_opt
C  -3.937655   0.252944  -0.011880
C  -2.723806  -0.612294   0.057319
H  -4.823126  -0.338986   0.168716
H  -4.002291   0.998392  -0.993638
H  -3.913939   0.790091   0.706878
C  -1.405576   0.210295   0.046679
H  -2.742745  -1.260245  -0.808231
H  -2.839329  -1.208608   0.958012
C  -0.131818  -0.701341   0.002165
H  -1.326713   1.007959   1.017112
H  -1.470944   0.702673  -0.717650
H  -0.088488  -1.415031   0.969719
H   0.683079  -0.167924  -0.115479
H  -0.112190  -1.384533  -0.886176
