butane_opt
 OpenBabel08242015423D

 14 13  0  0  0  0  0  0  0  0999 V2000
   -3.9308    0.2839   -0.0223 C   0  0  0  0  0  0  0  0  0  0  0  0
   -2.6892   -0.6229    0.0481 C   0  0  0  0  0  0  0  0  0  0  0  0
   -4.8662   -0.3200    0.2681 H   0  0  0  0  0  0  0  0  0  0  0  0
   -4.0421    1.0867   -0.9967 H   0  0  0  0  0  0  0  0  0  0  0  0
   -3.9452    0.8175    0.7109 H   0  0  0  0  0  0  0  0  0  0  0  0
   -1.4048    0.1586    0.0722 C   0  0  0  0  0  0  0  0  0  0  0  0
   -2.6396   -1.2600   -0.7595 H   0  0  0  0  0  0  0  0  0  0  0  0
   -2.7254   -1.3529    0.9912 H   0  0  0  0  0  0  0  0  0  0  0  0
   -0.1766   -0.6848    0.0001 C   0  0  0  0  0  0  0  0  0  0  0  0
   -1.2932    0.8367    0.9039 H   0  0  0  0  0  0  0  0  0  0  0  0
   -1.4234    0.7034   -0.7859 H   0  0  0  0  0  0  0  0  0  0  0  0
   -0.2320   -1.1790    0.8051 H   0  0  0  0  0  0  0  0  0  0  0  0
    0.8222    0.0044    0.0528 H   0  0  0  0  0  0  0  0  0  0  0  0
   -0.2599   -1.4127   -0.9400 H   0  0  0  0  0  0  0  0  0  0  0  0
  1  2  1  0  0  0  0
  1  3  1  0  0  0  0
  1  5  1  0  0  0  0
  2  6  1  0  0  0  0
  2  8  1  0  0  0  0
  4  1  1  0  0  0  0
  6 10  1  0  0  0  0
  7  2  1  0  0  0  0
  9 13  1  0  0  0  0
  9  6  1  0  0  0  0
  9 12  1  0  0  0  0
 11  6  1  0  0  0  0
 14  9  1  0  0  0  0
M  END
$$$$
