14
butane_opt
C  -3.930768   0.283857  -0.022304
C  -2.689172  -0.622914   0.048095
H  -4.866156  -0.320027   0.268102
H  -4.042103   1.086731  -0.996696
H  -3.945226   0.817496   0.710927
C  -1.404767   0.158638   0.072233
H  -2.639612  -1.260017  -0.759501
H  -2.725431  -1.352870   0.991202
C  -0.176576  -0.684799   0.000119
H  -1.293161   0.836684   0.903854
H  -1.423351   0.703414  -0.785886
H  -0.232030  -1.179006   0.805125
H   0.822236   0.004436   0.052778
H  -0.259921  -1.412720  -0.940040
