butane_opt
 OpenBabel08242015423D

 14 13  0  0  0  0  0  0  0  0999 V2000
   -3.9502    0.2523   -0.0238 C   0  0  0  0  0  0  0  0  0  0  0  0
   -2.7030   -0.6069    0.0517 C   0  0  0  0  0  0  0  0  0  0  0  0
   -4.8756   -0.3157    0.0520 H   0  0  0  0  0  0  0  0  0  0  0  0
   -4.0070    0.8431   -0.9153 H   0  0  0  0  0  0  0  0  0  0  0  0
   -4.0538    0.9160    0.8064 H   0  0  0  0  0  0  0  0  0  0  0  0
   -1.3904    0.2082    0.0760 C   0  0  0  0  0  0  0  0  0  0  0  0
   -2.6605   -1.3172   -0.8136 H   0  0  0  0  0  0  0  0  0  0  0  0
   -2.7612   -1.2748    1.0169 H   0  0  0  0  0  0  0  0  0  0  0  0
   -0.1567   -0.6978   -0.0059 C   0  0  0  0  0  0  0  0  0  0  0  0
   -1.3315    0.9099    0.9610 H   0  0  0  0  0  0  0  0  0  0  0  0
   -1.4502    0.7721   -0.7771 H   0  0  0  0  0  0  0  0  0  0  0  0
    0.0482   -1.4464    0.9593 H   0  0  0  0  0  0  0  0  0  0  0  0
    0.6876   -0.1728   -0.2509 H   0  0  0  0  0  0  0  0  0  0  0  0
   -0.2030   -1.2553   -0.7551 H   0  0  0  0  0  0  0  0  0  0  0  0
  1  2  1  0  0  0  0
  1  3  1  0  0  0  0
  1  5  1  0  0  0  0
  2  6  1  0  0  0  0
  2  8  1  0  0  0  0
  4  1  1  0  0  0  0
  6 10  1  0  0  0  0
  7  2  1  0  0  0  0
  9  6  1  0  0  0  0
  9 12  1  0  0  0  0
 11  6  1  0  0  0  0
 13  9  1  0  0  0  0
 14  9  1  0  0  0  0
M  END
$$$$
