14
butane_opt
C  -3.949597   0.275257   0.074169
C  -2.676777  -0.611973   0.000331
H  -4.867876  -0.373495   0.001276
H  -3.935383   0.790708  -0.777581
H  -3.926191   0.965036   0.936866
C  -1.414367   0.174395  -0.062148
H  -2.718801  -1.296169  -0.885267
H  -2.595843  -1.283140   0.943697
C  -0.187008  -0.696934   0.070824
H  -1.440419   0.835485   0.795085
H  -1.275033   0.861325  -0.977152
H  -0.256748  -1.253820   0.949754
H   0.785639  -0.028116   0.237713
H  -0.062194  -1.381328  -0.788369
