14
butane_opt
C  -3.956326   0.274523  -0.016355
C  -2.715589  -0.619480   0.085343
H  -4.832459  -0.323368   0.030540
H  -3.980369   0.934410  -0.957916
H  -4.135962   0.883729   0.780121
C  -1.386194   0.173841   0.034560
H  -2.724939  -1.227662  -0.720280
H  -2.648091  -1.346671   1.028221
C  -0.145949  -0.691191  -0.002348
H  -1.332991   0.860654   0.900079
H  -1.415318   0.772171  -0.789361
H  -0.193140  -1.129857   0.749956
H   0.786637  -0.084469   0.140983
H  -0.087663  -1.462140  -0.958941
