butane_opt
 OpenBabel08242015423D

 14 13  0  0  0  0  0  0  0  0999 V2000
   -3.9496    0.2753    0.0742 C   0  0  0  0  0  0  0  0  0  0  0  0
   -2.6768   -0.6120    0.0003 C   0  0  0  0  0  0  0  0  0  0  0  0
   -4.8679   -0.3735    0.0013 H   0  0  0  0  0  0  0  0  0  0  0  0
   -3.9354    0.7907   -0.7776 H   0  0  0  0  0  0  0  0  0  0  0  0
   -3.9262    0.9650    0.9369 H   0  0  0  0  0  0  0  0  0  0  0  0
   -1.4144    0.1744   -0.0621 C   0  0  0  0  0  0  0  0  0  0  0  0
   -2.7188   -1.2962   -0.8853 H   0  0  0  0  0  0  0  0  0  0  0  0
   -2.5958   -1.2831    0.9437 H   0  0  0  0  0  0  0  0  0  0  0  0
   -0.1870   -0.6969    0.0708 C   0  0  0  0  0  0  0  0  0  0  0  0
   -1.4404    0.8355    0.7951 H   0  0  0  0  0  0  0  0  0  0  0  0
   -1.2750    0.8613   -0.9772 H   0  0  0  0  0  0  0  0  0  0  0  0
   -0.2567   -1.2538    0.9498 H   0  0  0  0  0  0  0  0  0  0  0  0
    0.7856   -0.0281    0.2377 H   0  0  0  0  0  0  0  0  0  0  0  0
   -0.0622   -1.3813   -0.7884 H   0  0  0  0  0  0  0  0  0  0  0  0
  1  5  1  0  0  0  0
  2  1  1  0  0  0  0
  2  8  1  0  0  0  0
  3  1  1  0  0  0  0
  4  1  1  0  0  0  0
  6  2  1  0  0  0  0
  6  9  1  0  0  0  0
  6 10  1  0  0  0  0
  7  2  1  0  0  0  0
  9 13  1  0  0  0  0
  9 12  1  0  0  0  0
 11  6  1  0  0  0  0
 14  9  1  0  0  0  0
M  END
$$$$
