butane_opt
 OpenBabel08242015423D

 14 13  0  0  0  0  0  0  0  0999 V2000
   -3.9622    0.2893   -0.0153 C   0  0  0  0  0  0  0  0  0  0  0  0
   -2.6893   -0.6468    0.0959 C   0  0  0  0  0  0  0  0  0  0  0  0
   -4.8023   -0.2338    0.0554 H   0  0  0  0  0  0  0  0  0  0  0  0
   -3.9795    1.0193   -0.9682 H   0  0  0  0  0  0  0  0  0  0  0  0
   -4.0628    0.7587    0.7312 H   0  0  0  0  0  0  0  0  0  0  0  0
   -1.3838    0.1769    0.0262 C   0  0  0  0  0  0  0  0  0  0  0  0
   -2.7642   -1.2657   -0.7097 H   0  0  0  0  0  0  0  0  0  0  0  0
   -2.7545   -1.3910    1.0528 H   0  0  0  0  0  0  0  0  0  0  0  0
   -0.1563   -0.6760   -0.0157 C   0  0  0  0  0  0  0  0  0  0  0  0
   -1.3712    0.9504    0.9415 H   0  0  0  0  0  0  0  0  0  0  0  0
   -1.3478    0.7733   -0.8119 H   0  0  0  0  0  0  0  0  0  0  0  0
   -0.3147   -1.0978    0.7353 H   0  0  0  0  0  0  0  0  0  0  0  0
    0.7602   -0.0898    0.2748 H   0  0  0  0  0  0  0  0  0  0  0  0
   -0.0932   -1.6106   -1.0029 H   0  0  0  0  0  0  0  0  0  0  0  0
  1  3  1  0  0  0  0
  1  2  1  0  0  0  0
  1  5  1  0  0  0  0
  2  8  1  0  0  0  0
  4  1  1  0  0  0  0
  6  2  1  0  0  0  0
  6 10  1  0  0  0  0
  7  2  1  0  0  0  0
  9  6  1  0  0  0  0
  9 13  1  0  0  0  0
  9 12  1  0  0  0  0
 11  6  1  0  0  0  0
 14  9  1  0  0  0  0
M  END
$$$$
