14
butane_opt
C  -3.966568   0.268518  -0.012047
C  -2.698865  -0.622131   0.068653
H  -4.873565  -0.351838   0.096465
H  -4.063049   1.028698  -1.001928
H  -3.919869   0.806197   0.786959
C  -1.394157   0.186800   0.057915
H  -2.751944  -1.266088  -0.750190
H  -2.788698  -1.230984   0.944230
C  -0.129251  -0.701198  -0.004091
H  -1.348002   0.829551   0.872084
H  -1.445474   0.875301  -0.894709
H  -0.193845  -1.147210   0.848244
H   0.792547  -0.097088   0.142944
H  -0.159440  -1.506250  -0.958435
