14
butane_opt
C  -3.949293   0.277628   0.041866
C  -2.673426  -0.617617   0.019413
H  -4.826111  -0.279424  -0.049415
H  -3.822745   0.819536  -0.846913
H  -4.058482   0.999734   0.923272
C  -1.390187   0.164472   0.009841
H  -2.725526  -1.421741  -0.938148
H  -2.746682  -1.201071   0.883506
C  -0.193210  -0.683402   0.040509
H  -1.355218   0.783960   0.878323
H  -1.377203   0.817888  -0.891599
H  -0.097604  -1.442156   1.070459
H   0.707247  -0.083946  -0.188423
H  -0.257736  -1.142199  -0.706117
