14
butane_opt
C  -3.953503   0.255657  -0.003026
C  -2.710655  -0.593471   0.077941
H  -4.885173  -0.362097   0.067359
H  -3.934860   0.904547  -0.901777
H  -3.942639   0.839230   0.806960
C  -1.417817   0.196547   0.005820
H  -2.665465  -1.236484  -0.736611
H  -2.741816  -1.322843   1.028350
C  -0.131671  -0.697669  -0.010375
H  -1.380878   0.857139   0.883163
H  -1.412562   0.739833  -0.805641
H  -0.239566  -1.161025   0.829414
H   0.742870  -0.182736   0.332963
H   0.006148  -1.484031  -0.923738
