14
butane_opt
C  -3.930968   0.252040  -0.014961
C  -2.707951  -0.610775   0.068327
H  -4.849959  -0.352819  -0.021914
H  -3.938283   0.922936  -0.942779
H  -3.990063   0.901487   0.829176
C  -1.413570   0.197731   0.048506
H  -2.746188  -1.256991  -0.737411
H  -2.700144  -1.239257   0.979753
C  -0.149592  -0.697974   0.000412
H  -1.400509   0.934004   0.953175
H  -1.448214   0.785523  -0.813079
H  -0.079003  -1.347728   0.898183
H   0.741103  -0.138752  -0.086483
H  -0.181902  -1.375603  -0.858756
