butane_opt
 OpenBabel08242015423D

 14 13  0  0  0  0  0  0  0  0999 V2000
   -3.9388    0.2675    0.0460 C   0  0  0  0  0  0  0  0  0  0  0  0
   -2.6910   -0.6234    0.0184 C   0  0  0  0  0  0  0  0  0  0  0  0
   -4.8174   -0.3005   -0.0581 H   0  0  0  0  0  0  0  0  0  0  0  0
   -3.9544    0.7480   -0.7836 H   0  0  0  0  0  0  0  0  0  0  0  0
   -4.0106    1.0534    0.9892 H   0  0  0  0  0  0  0  0  0  0  0  0
   -1.4054    0.1744   -0.0295 C   0  0  0  0  0  0  0  0  0  0  0  0
   -2.6926   -1.2674   -0.8219 H   0  0  0  0  0  0  0  0  0  0  0  0
   -2.6400   -1.2511    0.8879 H   0  0  0  0  0  0  0  0  0  0  0  0
   -0.1829   -0.6874    0.0556 C   0  0  0  0  0  0  0  0  0  0  0  0
   -1.3721    0.8482    0.8134 H   0  0  0  0  0  0  0  0  0  0  0  0
   -1.4016    0.8319   -0.9463 H   0  0  0  0  0  0  0  0  0  0  0  0
   -0.1693   -1.3434    0.9829 H   0  0  0  0  0  0  0  0  0  0  0  0
    0.7545   -0.0747    0.0498 H   0  0  0  0  0  0  0  0  0  0  0  0
   -0.1054   -1.2863   -0.7361 H   0  0  0  0  0  0  0  0  0  0  0  0
  1  5  1  0  0  0  0
  2  1  1  0  0  0  0
  2  8  1  0  0  0  0
  3  1  1  0  0  0  0
  4  1  1  0  0  0  0
  6  2  1  0  0  0  0
  6  9  1  0  0  0  0
  6 10  1  0  0  0  0
  7  2  1  0  0  0  0
  9 12  1  0  0  0  0
 11  6  1  0  0  0  0
 13  9  1  0  0  0  0
 14  9  1  0  0  0  0
M  END
$$$$
