butane_opt
 OpenBabel08242015423D

 14 13  0  0  0  0  0  0  0  0999 V2000
   -3.9164    0.2456   -0.0052 C   0  0  0  0  0  0  0  0  0  0  0  0
   -2.7107   -0.5996    0.0552 C   0  0  0  0  0  0  0  0  0  0  0  0
   -4.8033   -0.3215   -0.0582 H   0  0  0  0  0  0  0  0  0  0  0  0
   -3.8481    0.8877   -0.9185 H   0  0  0  0  0  0  0  0  0  0  0  0
   -3.9331    0.8910    0.8662 H   0  0  0  0  0  0  0  0  0  0  0  0
   -1.4277    0.2042    0.0404 C   0  0  0  0  0  0  0  0  0  0  0  0
   -2.7624   -1.2622   -0.8060 H   0  0  0  0  0  0  0  0  0  0  0  0
   -2.7092   -1.1806    0.9640 H   0  0  0  0  0  0  0  0  0  0  0  0
   -0.1701   -0.7038    0.0132 C   0  0  0  0  0  0  0  0  0  0  0  0
   -1.3206    0.9615    0.9433 H   0  0  0  0  0  0  0  0  0  0  0  0
   -1.4659    0.7104   -0.7747 H   0  0  0  0  0  0  0  0  0  0  0  0
   -0.0197   -1.4814    1.0093 H   0  0  0  0  0  0  0  0  0  0  0  0
    0.7530   -0.1356   -0.2186 H   0  0  0  0  0  0  0  0  0  0  0  0
   -0.2200   -1.2928   -0.8043 H   0  0  0  0  0  0  0  0  0  0  0  0
  1  2  1  0  0  0  0
  1  5  1  0  0  0  0
  2  8  1  0  0  0  0
  3  1  1  0  0  0  0
  4  1  1  0  0  0  0
  6  2  1  0  0  0  0
  6 10  1  0  0  0  0
  7  2  1  0  0  0  0
  9  6  1  0  0  0  0
  9 12  1  0  0  0  0
 11  6  1  0  0  0  0
 13  9  1  0  0  0  0
 14  9  1  0  0  0  0
M  END
$$$$
