14
butane_opt
C  -3.975706   0.286648   0.074420
C  -2.687534  -0.660254  -0.012092
H  -4.805486  -0.245441   0.177067
H  -4.038240   0.886875  -0.804421
H  -3.956324   1.035889   0.947906
C  -1.379670   0.180252  -0.076197
H  -2.838820  -1.370332  -0.889282
H  -2.677597  -1.272155   0.885720
C  -0.159040  -0.677105   0.085598
H  -1.417174   0.869972   0.797555
H  -1.311111   0.777577  -0.998415
H  -0.314921  -1.234905   0.956091
H   0.756966  -0.108209   0.251110
H  -0.010230  -1.349927  -0.743254
