butane_opt
 OpenBabel08242015423D

 14 13  0  0  0  0  0  0  0  0999 V2000
   -3.9542    0.2701    0.0422 C   0  0  0  0  0  0  0  0  0  0  0  0
   -2.6849   -0.6118    0.0311 C   0  0  0  0  0  0  0  0  0  0  0  0
   -4.8815   -0.3310   -0.1866 H   0  0  0  0  0  0  0  0  0  0  0  0
   -3.9046    0.6804   -0.6939 H   0  0  0  0  0  0  0  0  0  0  0  0
   -4.0228    1.1553    1.0833 H   0  0  0  0  0  0  0  0  0  0  0  0
   -1.4038    0.1618   -0.0385 C   0  0  0  0  0  0  0  0  0  0  0  0
   -2.7693   -1.3523   -0.8684 H   0  0  0  0  0  0  0  0  0  0  0  0
   -2.6436   -1.2762    0.8867 H   0  0  0  0  0  0  0  0  0  0  0  0
   -0.1708   -0.6788    0.0690 C   0  0  0  0  0  0  0  0  0  0  0  0
   -1.4743    0.7693    0.7567 H   0  0  0  0  0  0  0  0  0  0  0  0
   -1.3365    0.9044   -1.0076 H   0  0  0  0  0  0  0  0  0  0  0  0
   -0.0292   -1.3346    0.9849 H   0  0  0  0  0  0  0  0  0  0  0  0
    0.7693   -0.1187    0.0010 H   0  0  0  0  0  0  0  0  0  0  0  0
   -0.1778   -1.2577   -0.7357 H   0  0  0  0  0  0  0  0  0  0  0  0
  1  5  1  0  0  0  0
  2  1  1  0  0  0  0
  2  8  1  0  0  0  0
  3  1  1  0  0  0  0
  4  1  1  0  0  0  0
  6  2  1  0  0  0  0
  6  9  1  0  0  0  0
  6 10  1  0  0  0  0
  7  2  1  0  0  0  0
  9 12  1  0  0  0  0
 11  6  1  0  0  0  0
 13  9  1  0  0  0  0
 14  9  1  0  0  0  0
M  END
$$$$
