14
butane_opt
C  -3.921893   0.256375  -0.008392
C  -2.703591  -0.597965   0.061445
H  -4.857316  -0.379990   0.169986
H  -3.982501   1.014159  -0.984168
H  -3.924953   0.776789   0.753519
C  -1.420657   0.187729   0.044481
H  -2.735893  -1.290865  -0.816595
H  -2.736203  -1.197355   0.921493
C  -0.161403  -0.701545   0.010724
H  -1.403393   0.929915   0.924310
H  -1.379272   0.775957  -0.805662
H  -0.132837  -1.300050   0.872343
H   0.772220  -0.102933  -0.021842
H  -0.148027  -1.434062  -0.896228
