butane_opt
 OpenBabel08242015423D

 14 13  0  0  0  0  0  0  0  0999 V2000
   -3.9471    0.2810   -0.0458 C   0  0  0  0  0  0  0  0  0  0  0  0
   -2.6828   -0.6184    0.0931 C   0  0  0  0  0  0  0  0  0  0  0  0
   -4.8575   -0.3349   -0.0446 H   0  0  0  0  0  0  0  0  0  0  0  0
   -3.9083    0.9306   -0.9940 H   0  0  0  0  0  0  0  0  0  0  0  0
   -3.9357    0.8725    0.7739 H   0  0  0  0  0  0  0  0  0  0  0  0
   -1.3908    0.1751    0.0863 C   0  0  0  0  0  0  0  0  0  0  0  0
   -2.6382   -1.2637   -0.7090 H   0  0  0  0  0  0  0  0  0  0  0  0
   -2.7245   -1.3455    1.0405 H   0  0  0  0  0  0  0  0  0  0  0  0
   -0.1933   -0.6880   -0.0332 C   0  0  0  0  0  0  0  0  0  0  0  0
   -1.4069    0.9179    1.0008 H   0  0  0  0  0  0  0  0  0  0  0  0
   -1.3643    0.6808   -0.6659 H   0  0  0  0  0  0  0  0  0  0  0  0
   -0.0614   -1.3206    0.8924 H   0  0  0  0  0  0  0  0  0  0  0  0
    0.7588   -0.0832   -0.2052 H   0  0  0  0  0  0  0  0  0  0  0  0
   -0.3230   -1.3049   -0.8719 H   0  0  0  0  0  0  0  0  0  0  0  0
  1  3  1  0  0  0  0
  1  2  1  0  0  0  0
  1  5  1  0  0  0  0
  2  8  1  0  0  0  0
  4  1  1  0  0  0  0
  6  2  1  0  0  0  0
  6 10  1  0  0  0  0
  7  2  1  0  0  0  0
  9  6  1  0  0  0  0
  9 12  1  0  0  0  0
 11  6  1  0  0  0  0
 13  9  1  0  0  0  0
 14  9  1  0  0  0  0
M  END
$$$$
