14
butane_opt
C  -3.933740   0.251765   0.034481
C  -2.696672  -0.599252  -0.017264
H  -4.872656  -0.373719   0.044209
H  -3.987216   0.763552  -0.756473
H  -3.874961   1.032546   0.999220
C  -1.425227   0.203804   0.004404
H  -2.700057  -1.330971  -0.879511
H  -2.684043  -1.240999   0.864914
C  -0.155518  -0.695702   0.068686
H  -1.374293   0.839006   0.802489
H  -1.407626   0.778529  -0.872150
H  -0.042994  -1.511823   1.138740
H   0.690355  -0.181639  -0.274397
H  -0.226133  -1.173089  -0.679477
