butane_opt
 OpenBabel08242015423D

 14 13  0  0  0  0  0  0  0  0999 V2000
   -3.9681    0.2640    0.0082 C   0  0  0  0  0  0  0  0  0  0  0  0
   -2.7109   -0.6245    0.0374 C   0  0  0  0  0  0  0  0  0  0  0  0
   -4.8400   -0.2430    0.2418 H   0  0  0  0  0  0  0  0  0  0  0  0
   -4.0268    1.1478   -1.0445 H   0  0  0  0  0  0  0  0  0  0  0  0
   -3.9600    0.7211    0.7292 H   0  0  0  0  0  0  0  0  0  0  0  0
   -1.4081    0.1666    0.0396 C   0  0  0  0  0  0  0  0  0  0  0  0
   -2.7246   -1.3410   -0.8109 H   0  0  0  0  0  0  0  0  0  0  0  0
   -2.6978   -1.1734    0.8942 H   0  0  0  0  0  0  0  0  0  0  0  0
   -0.1247   -0.6878    0.0232 C   0  0  0  0  0  0  0  0  0  0  0  0
   -1.3743    0.9082    0.9192 H   0  0  0  0  0  0  0  0  0  0  0  0
   -1.3621    0.7329   -0.7834 H   0  0  0  0  0  0  0  0  0  0  0  0
   -0.1417   -1.1867    0.8256 H   0  0  0  0  0  0  0  0  0  0  0  0
    0.7822   -0.0664   -0.0416 H   0  0  0  0  0  0  0  0  0  0  0  0
   -0.1390   -1.3809   -0.8310 H   0  0  0  0  0  0  0  0  0  0  0  0
  1  2  1  0  0  0  0
  1  3  1  0  0  0  0
  1  5  1  0  0  0  0
  2  6  1  0  0  0  0
  2  8  1  0  0  0  0
  4  1  1  0  0  0  0
  6 10  1  0  0  0  0
  7  2  1  0  0  0  0
  9  6  1  0  0  0  0
  9 12  1  0  0  0  0
 11  6  1  0  0  0  0
 13  9  1  0  0  0  0
 14  9  1  0  0  0  0
M  END
$$$$
