butane_opt
 OpenBabel08242015423D

 14 13  0  0  0  0  0  0  0  0999 V2000
   -3.9734    0.2829    0.0504 C   0  0  0  0  0  0  0  0  0  0  0  0
   -2.6802   -0.6336    0.0218 C   0  0  0  0  0  0  0  0  0  0  0  0
   -4.8885   -0.3168    0.0930 H   0  0  0  0  0  0  0  0  0  0  0  0
   -4.0785    0.8700   -0.8364 H   0  0  0  0  0  0  0  0  0  0  0  0
   -3.9395    1.0075    0.9441 H   0  0  0  0  0  0  0  0  0  0  0  0
   -1.3807    0.1578   -0.0441 C   0  0  0  0  0  0  0  0  0  0  0  0
   -2.6777   -1.3333   -0.8792 H   0  0  0  0  0  0  0  0  0  0  0  0
   -2.6832   -1.2956    0.9059 H   0  0  0  0  0  0  0  0  0  0  0  0
   -0.1566   -0.6731    0.0761 C   0  0  0  0  0  0  0  0  0  0  0  0
   -1.3906    0.7487    0.7710 H   0  0  0  0  0  0  0  0  0  0  0  0
   -1.4250    0.9062   -1.0515 H   0  0  0  0  0  0  0  0  0  0  0  0
   -0.3419   -1.0753    0.8754 H   0  0  0  0  0  0  0  0  0  0  0  0
    0.7816   -0.1084    0.2423 H   0  0  0  0  0  0  0  0  0  0  0  0
   -0.0850   -1.4829   -0.8821 H   0  0  0  0  0  0  0  0  0  0  0  0
  1  3  1  0  0  0  0
  1  5  1  0  0  0  0
  2  1  1  0  0  0  0
  2  8  1  0  0  0  0
  4  1  1  0  0  0  0
  6  2  1  0  0  0  0
  6  9  1  0  0  0  0
  6 10  1  0  0  0  0
  7  2  1  0  0  0  0
  9 13  1  0  0  0  0
  9 12  1  0  0  0  0
 11  6  1  0  0  0  0
 14  9  1  0  0  0  0
M  END
$$$$
