14
butane_opt
C  -3.919364   0.254121  -0.018979
C  -2.718576  -0.604472   0.097611
H  -4.836258  -0.357547  -0.218205
H  -3.808992   0.676337  -0.855773
H  -4.010868   1.058403   0.948557
C  -1.403022   0.207722   0.032066
H  -2.694349  -1.197928  -0.744980
H  -2.815197  -1.272207   1.015630
C  -0.163044  -0.718315   0.012788
H  -1.423091   0.882651   0.873460
H  -1.487456   0.879781  -0.884655
H  -0.049209  -1.275154   0.840965
H   0.725693  -0.139055  -0.142461
H  -0.173293  -1.403604  -0.860757
