butane_opt
 OpenBabel08242015423D

 14 13  0  0  0  0  0  0  0  0999 V2000
   -3.9393    0.2850    0.0737 C   0  0  0  0  0  0  0  0  0  0  0  0
   -2.6878   -0.6222   -0.0008 C   0  0  0  0  0  0  0  0  0  0  0  0
   -4.8516   -0.2568   -0.0108 H   0  0  0  0  0  0  0  0  0  0  0  0
   -3.9886    0.7780   -0.7396 H   0  0  0  0  0  0  0  0  0  0  0  0
   -3.9716    1.0575    1.0160 H   0  0  0  0  0  0  0  0  0  0  0  0
   -1.3979    0.1443   -0.0655 C   0  0  0  0  0  0  0  0  0  0  0  0
   -2.7484   -1.3293   -0.9088 H   0  0  0  0  0  0  0  0  0  0  0  0
   -2.7580   -1.2840    0.8930 H   0  0  0  0  0  0  0  0  0  0  0  0
   -0.1779   -0.6759    0.0794 C   0  0  0  0  0  0  0  0  0  0  0  0
   -1.3894    0.8011    0.7861 H   0  0  0  0  0  0  0  0  0  0  0  0
   -1.3804    0.8093   -1.0090 H   0  0  0  0  0  0  0  0  0  0  0  0
   -0.3349   -1.2847    0.9923 H   0  0  0  0  0  0  0  0  0  0  0  0
    0.7978   -0.0153    0.1288 H   0  0  0  0  0  0  0  0  0  0  0  0
    0.0166   -1.3089   -0.7368 H   0  0  0  0  0  0  0  0  0  0  0  0
  1  5  1  0  0  0  0
  2  1  1  0  0  0  0
  2  8  1  0  0  0  0
  3  1  1  0  0  0  0
  4  1  1  0  0  0  0
  6  2  1  0  0  0  0
  6  9  1  0  0  0  0
  6 10  1  0  0  0  0
  7  2  1  0  0  0  0
  9 13  1  0  0  0  0
  9 12  1  0  0  0  0
 11  6  1  0  0  0  0
 14  9  1  0  0  0  0
M  END
$$$$
