butane_opt
 OpenBabel08242015423D

 14 13  0  0  0  0  0  0  0  0999 V2000
   -3.9265    0.2612   -0.0437 C   0  0  0  0  0  0  0  0  0  0  0  0
   -2.7142   -0.6058    0.0872 C   0  0  0  0  0  0  0  0  0  0  0  0
   -4.8005   -0.3395    0.1271 H   0  0  0  0  0  0  0  0  0  0  0  0
   -3.9325    0.9703   -1.0249 H   0  0  0  0  0  0  0  0  0  0  0  0
   -3.9313    0.8253    0.7269 H   0  0  0  0  0  0  0  0  0  0  0  0
   -1.4142    0.2007    0.0936 C   0  0  0  0  0  0  0  0  0  0  0  0
   -2.6375   -1.3131   -0.7947 H   0  0  0  0  0  0  0  0  0  0  0  0
   -2.8529   -1.2477    0.9886 H   0  0  0  0  0  0  0  0  0  0  0  0
   -0.1596   -0.7108   -0.0209 C   0  0  0  0  0  0  0  0  0  0  0  0
   -1.3415    0.8649    0.9800 H   0  0  0  0  0  0  0  0  0  0  0  0
   -1.4489    0.7652   -0.7554 H   0  0  0  0  0  0  0  0  0  0  0  0
    0.0042   -1.2975    0.8117 H   0  0  0  0  0  0  0  0  0  0  0  0
    0.7534   -0.0888   -0.1496 H   0  0  0  0  0  0  0  0  0  0  0  0
   -0.2646   -1.3339   -0.8589 H   0  0  0  0  0  0  0  0  0  0  0  0
  1  2  1  0  0  0  0
  1  3  1  0  0  0  0
  1  5  1  0  0  0  0
  2  6  1  0  0  0  0
  2  8  1  0  0  0  0
  4  1  1  0  0  0  0
  6 10  1  0  0  0  0
  7  2  1  0  0  0  0
  9  6  1  0  0  0  0
  9 12  1  0  0  0  0
 11  6  1  0  0  0  0
 13  9  1  0  0  0  0
 14  9  1  0  0  0  0
M  END
$$$$
