14
butane_opt
C  -3.926545   0.261242  -0.043739
C  -2.714230  -0.605841   0.087246
H  -4.800457  -0.339519   0.127068
H  -3.932489   0.970276  -1.024921
H  -3.931303   0.825341   0.726908
C  -1.414200   0.200702   0.093579
H  -2.637462  -1.313063  -0.794748
H  -2.852950  -1.247672   0.988629
C  -0.159618  -0.710831  -0.020920
H  -1.341495   0.864923   0.980030
H  -1.448938   0.765171  -0.755417
H   0.004189  -1.297513   0.811704
H   0.753386  -0.088781  -0.149583
H  -0.264638  -1.333949  -0.858877
