butane_opt
 OpenBabel08242015423D

 14 13  0  0  0  0  0  0  0  0999 V2000
   -3.9666    0.2772   -0.0087 C   0  0  0  0  0  0  0  0  0  0  0  0
   -2.7197   -0.6298    0.0627 C   0  0  0  0  0  0  0  0  0  0  0  0
   -4.8116   -0.2242    0.1890 H   0  0  0  0  0  0  0  0  0  0  0  0
   -4.0523    1.0824   -1.0179 H   0  0  0  0  0  0  0  0  0  0  0  0
   -3.9265    0.7028    0.7200 H   0  0  0  0  0  0  0  0  0  0  0  0
   -1.3925    0.1699    0.0561 C   0  0  0  0  0  0  0  0  0  0  0  0
   -2.7118   -1.3732   -0.8318 H   0  0  0  0  0  0  0  0  0  0  0  0
   -2.6758   -1.2401    0.9308 H   0  0  0  0  0  0  0  0  0  0  0  0
   -0.1473   -0.6779   -0.0088 C   0  0  0  0  0  0  0  0  0  0  0  0
   -1.2589    0.8600    0.9199 H   0  0  0  0  0  0  0  0  0  0  0  0
   -1.3865    0.8337   -0.8099 H   0  0  0  0  0  0  0  0  0  0  0  0
   -0.1544   -1.2389    0.8783 H   0  0  0  0  0  0  0  0  0  0  0  0
    0.7281   -0.1030    0.1426 H   0  0  0  0  0  0  0  0  0  0  0  0
   -0.0736   -1.4391   -0.9256 H   0  0  0  0  0  0  0  0  0  0  0  0
  1  2  1  0  0  0  0
  1  3  1  0  0  0  0
  1  5  1  0  0  0  0
  2  8  1  0  0  0  0
  4  1  1  0  0  0  0
  6  2  1  0  0  0  0
  6 10  1  0  0  0  0
  7  2  1  0  0  0  0
  9  6  1  0  0  0  0
  9 13  1  0  0  0  0
  9 12  1  0  0  0  0
 11  6  1  0  0  0  0
 14  9  1  0  0  0  0
M  END
$$$$
