14
butane_opt
C  -3.931467   0.252565   0.049724
C  -2.698320  -0.580873   0.015431
H  -4.891416  -0.399578   0.090332
H  -3.964509   0.773711  -0.793521
H  -3.946756   0.857442   0.926485
C  -1.415905   0.194861  -0.059891
H  -2.666707  -1.216429  -0.801303
H  -2.652852  -1.232059   0.965006
C  -0.166828  -0.707274   0.071387
H  -1.444977   0.857389   0.794457
H  -1.364752   0.791849  -0.936757
H  -0.222081  -1.191756   0.878880
H   0.731266  -0.120061   0.245920
H  -0.034824  -1.518821  -0.861055
