14
butane_opt
C  -3.959363   0.246575   0.005459
C  -2.724816  -0.591958   0.063052
H  -4.805720  -0.327385   0.013198
H  -4.002966   0.899995  -0.897515
H  -3.915436   0.877079   0.877641
C  -1.393946   0.188860  -0.000179
H  -2.710834  -1.182929  -0.748192
H  -2.741819  -1.289635   1.047203
C  -0.136553  -0.706985   0.014809
H  -1.416941   0.900572   0.902038
H  -1.382958   0.865347  -0.896276
H  -0.234111  -1.194495   0.815956
H   0.784828  -0.116240   0.259315
H  -0.017635  -1.549732  -0.960956
