butane_opt
 OpenBabel08242015423D

 14 13  0  0  0  0  0  0  0  0999 V2000
   -3.9625    0.2667   -0.0199 C   0  0  0  0  0  0  0  0  0  0  0  0
   -2.7093   -0.6064    0.0582 C   0  0  0  0  0  0  0  0  0  0  0  0
   -4.9323   -0.3519   -0.0226 H   0  0  0  0  0  0  0  0  0  0  0  0
   -3.9548    0.8250   -0.8873 H   0  0  0  0  0  0  0  0  0  0  0  0
   -3.9345    0.9503    0.8141 H   0  0  0  0  0  0  0  0  0  0  0  0
   -1.3940    0.1950    0.0746 C   0  0  0  0  0  0  0  0  0  0  0  0
   -2.6458   -1.2656   -0.7577 H   0  0  0  0  0  0  0  0  0  0  0  0
   -2.7782   -1.2813    0.9534 H   0  0  0  0  0  0  0  0  0  0  0  0
   -0.1596   -0.7110   -0.0105 C   0  0  0  0  0  0  0  0  0  0  0  0
   -1.3351    0.9078    0.9786 H   0  0  0  0  0  0  0  0  0  0  0  0
   -1.3251    0.8024   -0.7908 H   0  0  0  0  0  0  0  0  0  0  0  0
   -0.0404   -1.4725    0.9649 H   0  0  0  0  0  0  0  0  0  0  0  0
    0.7927   -0.0618   -0.2566 H   0  0  0  0  0  0  0  0  0  0  0  0
   -0.1696   -1.2527   -0.7771 H   0  0  0  0  0  0  0  0  0  0  0  0
  1  2  1  0  0  0  0
  1  5  1  0  0  0  0
  2  6  1  0  0  0  0
  2  8  1  0  0  0  0
  3  1  1  0  0  0  0
  4  1  1  0  0  0  0
  6 10  1  0  0  0  0
  7  2  1  0  0  0  0
  9  6  1  0  0  0  0
  9 12  1  0  0  0  0
 11  6  1  0  0  0  0
 13  9  1  0  0  0  0
 14  9  1  0  0  0  0
M  END
$$$$
