14
butane_opt
C  -3.982496   0.274975   0.007744
C  -2.704389  -0.626528   0.078173
H  -4.870650  -0.312579  -0.136263
H  -3.890085   0.857959  -0.893936
H  -4.018102   1.008525   0.874878
C  -1.388706   0.167329   0.010332
H  -2.651302  -1.334407  -0.790201
H  -2.674763  -1.263943   1.008781
C  -0.150996  -0.680389   0.026415
H  -1.363765   0.847355   0.835283
H  -1.363383   0.833593  -0.900256
H  -0.063370  -1.240234   0.876318
H   0.757981  -0.051816   0.023368
H  -0.177381  -1.444501  -0.933947
