14
butane_opt
C  -3.954722   0.289391  -0.045024
C  -2.720911  -0.642849   0.104887
H  -4.839251  -0.264320  -0.162245
H  -3.926860   0.850545  -0.896350
H  -4.066968   0.940832   0.844623
C  -1.388961   0.180490   0.083507
H  -2.615703  -1.292139  -0.683913
H  -2.739041  -1.339423   1.028091
C  -0.149734  -0.681071  -0.021486
H  -1.252130   0.815347   0.889345
H  -1.417016   0.822306  -0.836361
H  -0.055505  -1.251727   0.862779
H   0.720355  -0.092100  -0.108065
H  -0.265655  -1.412308  -0.960678
