butane_opt
 OpenBabel08242015423D

 14 13  0  0  0  0  0  0  0  0999 V2000
   -3.9327    0.2837    0.0654 C   0  0  0  0  0  0  0  0  0  0  0  0
   -2.6833   -0.6395   -0.0238 C   0  0  0  0  0  0  0  0  0  0  0  0
   -4.8639   -0.2830    0.0010 H   0  0  0  0  0  0  0  0  0  0  0  0
   -3.9398    0.7741   -0.7848 H   0  0  0  0  0  0  0  0  0  0  0  0
   -3.8926    1.0588    0.9831 H   0  0  0  0  0  0  0  0  0  0  0  0
   -1.4074    0.1727   -0.0199 C   0  0  0  0  0  0  0  0  0  0  0  0
   -2.7433   -1.3814   -0.9226 H   0  0  0  0  0  0  0  0  0  0  0  0
   -2.6688   -1.2013    0.8494 H   0  0  0  0  0  0  0  0  0  0  0  0
   -0.1931   -0.6785    0.0615 C   0  0  0  0  0  0  0  0  0  0  0  0
   -1.3869    0.8979    0.8616 H   0  0  0  0  0  0  0  0  0  0  0  0
   -1.3197    0.7864   -0.9062 H   0  0  0  0  0  0  0  0  0  0  0  0
   -0.1617   -1.6351    1.1786 H   0  0  0  0  0  0  0  0  0  0  0  0
    0.7428   -0.0577   -0.1441 H   0  0  0  0  0  0  0  0  0  0  0  0
   -0.2060   -1.0852   -0.6350 H   0  0  0  0  0  0  0  0  0  0  0  0
  1  5  1  0  0  0  0
  2  6  1  0  0  0  0
  2  1  1  0  0  0  0
  2  8  1  0  0  0  0
  3  1  1  0  0  0  0
  4  1  1  0  0  0  0
  6  9  1  0  0  0  0
  6 10  1  0  0  0  0
  7  2  1  0  0  0  0
  9 12  1  0  0  0  0
 11  6  1  0  0  0  0
 13  9  1  0  0  0  0
 14  9  1  0  0  0  0
M  END
$$$$
