butane_opt
 OpenBabel08242015423D

 14 13  0  0  0  0  0  0  0  0999 V2000
   -3.9368    0.2409   -0.0224 C   0  0  0  0  0  0  0  0  0  0  0  0
   -2.7280   -0.6004    0.1044 C   0  0  0  0  0  0  0  0  0  0  0  0
   -4.8644   -0.3517   -0.1718 H   0  0  0  0  0  0  0  0  0  0  0  0
   -3.9155    0.8170   -0.9239 H   0  0  0  0  0  0  0  0  0  0  0  0
   -4.0497    0.9567    0.8779 H   0  0  0  0  0  0  0  0  0  0  0  0
   -1.3907    0.2278    0.0368 C   0  0  0  0  0  0  0  0  0  0  0  0
   -2.7726   -1.2331   -0.6946 H   0  0  0  0  0  0  0  0  0  0  0  0
   -2.7086   -1.2277    1.0095 H   0  0  0  0  0  0  0  0  0  0  0  0
   -0.1545   -0.7229   -0.0024 C   0  0  0  0  0  0  0  0  0  0  0  0
   -1.3958    0.8611    0.8983 H   0  0  0  0  0  0  0  0  0  0  0  0
   -1.3976    0.8584   -0.8754 H   0  0  0  0  0  0  0  0  0  0  0  0
   -0.0114   -1.2145    0.7955 H   0  0  0  0  0  0  0  0  0  0  0  0
    0.7229   -0.2075    0.0028 H   0  0  0  0  0  0  0  0  0  0  0  0
   -0.0957   -1.4834   -0.8967 H   0  0  0  0  0  0  0  0  0  0  0  0
  1  2  1  0  0  0  0
  1  5  1  0  0  0  0
  2  8  1  0  0  0  0
  3  1  1  0  0  0  0
  4  1  1  0  0  0  0
  6  2  1  0  0  0  0
  6 10  1  0  0  0  0
  7  2  1  0  0  0  0
  9 13  1  0  0  0  0
  9  6  1  0  0  0  0
  9 12  1  0  0  0  0
 11  6  1  0  0  0  0
 14  9  1  0  0  0  0
M  END
$$$$
