butane_opt
 OpenBabel08242015423D

 14 13  0  0  0  0  0  0  0  0999 V2000
   -3.9282    0.2856   -0.0238 C   0  0  0  0  0  0  0  0  0  0  0  0
   -2.6898   -0.6416    0.0865 C   0  0  0  0  0  0  0  0  0  0  0  0
   -4.8056   -0.2883   -0.0410 H   0  0  0  0  0  0  0  0  0  0  0  0
   -3.9390    0.9848   -0.9610 H   0  0  0  0  0  0  0  0  0  0  0  0
   -4.0788    0.8931    0.7534 H   0  0  0  0  0  0  0  0  0  0  0  0
   -1.4027    0.1525    0.0867 C   0  0  0  0  0  0  0  0  0  0  0  0
   -2.6245   -1.3503   -0.8097 H   0  0  0  0  0  0  0  0  0  0  0  0
   -2.7862   -1.1772    0.9374 H   0  0  0  0  0  0  0  0  0  0  0  0
   -0.1743   -0.6589   -0.0239 C   0  0  0  0  0  0  0  0  0  0  0  0
   -1.3366    0.8655    0.9188 H   0  0  0  0  0  0  0  0  0  0  0  0
   -1.5021    0.7129   -0.7681 H   0  0  0  0  0  0  0  0  0  0  0  0
   -0.0701   -1.4630    0.9508 H   0  0  0  0  0  0  0  0  0  0  0  0
    0.7812   -0.0379   -0.1715 H   0  0  0  0  0  0  0  0  0  0  0  0
   -0.3331   -1.2516   -0.8516 H   0  0  0  0  0  0  0  0  0  0  0  0
  1  2  1  0  0  0  0
  1  5  1  0  0  0  0
  2  6  1  0  0  0  0
  2  8  1  0  0  0  0
  3  1  1  0  0  0  0
  4  1  1  0  0  0  0
  6 10  1  0  0  0  0
  7  2  1  0  0  0  0
  9  6  1  0  0  0  0
  9 12  1  0  0  0  0
 11  6  1  0  0  0  0
 13  9  1  0  0  0  0
 14  9  1  0  0  0  0
M  END
$$$$
