14
butane_opt
C  -3.948429   0.291052   0.049346
C  -2.683381  -0.639094   0.021100
H  -4.876211  -0.336786  -0.140466
H  -3.943205   0.698094  -0.713326
H  -3.999217   1.115098   1.006104
C  -1.418547   0.153366  -0.030381
H  -2.731784  -1.407717  -0.888604
H  -2.560672  -1.205997   0.865439
C  -0.174396  -0.674319   0.068565
H  -1.346421   0.799461   0.780348
H  -1.338839   0.936944  -1.006494
H  -0.159758  -1.390271   0.993237
H   0.793524  -0.063331  -0.025329
H  -0.169905  -1.191031  -0.707808
