14
butane_opt
C  -3.936775   0.240850  -0.022413
C  -2.728043  -0.600352   0.104365
H  -4.864360  -0.351709  -0.171845
H  -3.915454   0.816956  -0.923894
H  -4.049701   0.956726   0.877908
C  -1.390727   0.227832   0.036819
H  -2.772593  -1.233098  -0.694646
H  -2.708644  -1.227685   1.009464
C  -0.154513  -0.722931  -0.002372
H  -1.395780   0.861131   0.898292
H  -1.397579   0.858433  -0.875440
H  -0.011391  -1.214533   0.795549
H   0.722892  -0.207489   0.002782
H  -0.095741  -1.483423  -0.896746
