butane_opt
 OpenBabel08242015423D

 14 13  0  0  0  0  0  0  0  0999 V2000
   -3.9531    0.2550    0.0479 C   0  0  0  0  0  0  0  0  0  0  0  0
   -2.7066   -0.6049    0.0201 C   0  0  0  0  0  0  0  0  0  0  0  0
   -4.9037   -0.3797    0.0480 H   0  0  0  0  0  0  0  0  0  0  0  0
   -3.9894    0.8412   -0.8430 H   0  0  0  0  0  0  0  0  0  0  0  0
   -3.9376    0.9346    0.9165 H   0  0  0  0  0  0  0  0  0  0  0  0
   -1.3979    0.2046   -0.0353 C   0  0  0  0  0  0  0  0  0  0  0  0
   -2.7348   -1.2516   -0.8330 H   0  0  0  0  0  0  0  0  0  0  0  0
   -2.7117   -1.2542    0.9111 H   0  0  0  0  0  0  0  0  0  0  0  0
   -0.1431   -0.7069    0.0626 C   0  0  0  0  0  0  0  0  0  0  0  0
   -1.4563    0.8664    0.7794 H   0  0  0  0  0  0  0  0  0  0  0  0
   -1.3726    0.8404   -0.9105 H   0  0  0  0  0  0  0  0  0  0  0  0
   -0.1675   -1.2540    0.9334 H   0  0  0  0  0  0  0  0  0  0  0  0
    0.7394   -0.1473    0.1462 H   0  0  0  0  0  0  0  0  0  0  0  0
   -0.0685   -1.4570   -0.8591 H   0  0  0  0  0  0  0  0  0  0  0  0
  1  3  1  0  0  0  0
  1  5  1  0  0  0  0
  2  1  1  0  0  0  0
  2  8  1  0  0  0  0
  4  1  1  0  0  0  0
  6  2  1  0  0  0  0
  6  9  1  0  0  0  0
  6 10  1  0  0  0  0
  7  2  1  0  0  0  0
  9 13  1  0  0  0  0
  9 12  1  0  0  0  0
 11  6  1  0  0  0  0
 14  9  1  0  0  0  0
M  END
$$$$
