14
butane_opt
C  -3.967394   0.286780   0.019236
C  -2.695120  -0.645558   0.030298
H  -4.825601  -0.255814   0.080595
H  -3.974356   0.870021  -0.843019
H  -4.037154   0.899547   0.852623
C  -1.387443   0.190499   0.018351
H  -2.752778  -1.400839  -0.874149
H  -2.655897  -1.213327   0.816299
C  -0.160437  -0.684304   0.038665
H  -1.316570   0.882735   0.876697
H  -1.282123   0.770179  -0.852813
H  -0.107669  -1.453381   1.034220
H   0.698615  -0.090752  -0.160590
H  -0.248242  -1.242551  -0.755574
