14
butane_opt
C  -3.973131   0.287896   0.076577
C  -2.698402  -0.652046   0.007892
H  -4.891868  -0.341701  -0.026383
H  -3.941222   0.882737  -0.818229
H  -4.049409   1.067437   0.971612
C  -1.386808   0.166131  -0.057367
H  -2.720867  -1.372126  -0.902829
H  -2.638140  -1.206645   0.863352
C  -0.157519  -0.677059   0.082402
H  -1.443249   0.765929   0.746042
H  -1.338876   0.864893  -0.968562
H  -0.202801  -1.248371   0.951673
H   0.791997  -0.025279   0.091338
H  -0.009962  -1.355638  -0.783822
