butane_opt
 OpenBabel08242015423D

 14 13  0  0  0  0  0  0  0  0999 V2000
   -3.9731    0.2879    0.0766 C   0  0  0  0  0  0  0  0  0  0  0  0
   -2.6984   -0.6520    0.0079 C   0  0  0  0  0  0  0  0  0  0  0  0
   -4.8919   -0.3417   -0.0264 H   0  0  0  0  0  0  0  0  0  0  0  0
   -3.9412    0.8827   -0.8182 H   0  0  0  0  0  0  0  0  0  0  0  0
   -4.0494    1.0674    0.9716 H   0  0  0  0  0  0  0  0  0  0  0  0
   -1.3868    0.1661   -0.0574 C   0  0  0  0  0  0  0  0  0  0  0  0
   -2.7209   -1.3721   -0.9028 H   0  0  0  0  0  0  0  0  0  0  0  0
   -2.6381   -1.2066    0.8634 H   0  0  0  0  0  0  0  0  0  0  0  0
   -0.1575   -0.6771    0.0824 C   0  0  0  0  0  0  0  0  0  0  0  0
   -1.4432    0.7659    0.7460 H   0  0  0  0  0  0  0  0  0  0  0  0
   -1.3389    0.8649   -0.9686 H   0  0  0  0  0  0  0  0  0  0  0  0
   -0.2028   -1.2484    0.9517 H   0  0  0  0  0  0  0  0  0  0  0  0
    0.7920   -0.0253    0.0913 H   0  0  0  0  0  0  0  0  0  0  0  0
   -0.0100   -1.3556   -0.7838 H   0  0  0  0  0  0  0  0  0  0  0  0
  1  5  1  0  0  0  0
  2  1  1  0  0  0  0
  2  8  1  0  0  0  0
  3  1  1  0  0  0  0
  4  1  1  0  0  0  0
  6  2  1  0  0  0  0
  6  9  1  0  0  0  0
  6 10  1  0  0  0  0
  7  2  1  0  0  0  0
  9 13  1  0  0  0  0
  9 12  1  0  0  0  0
 11  6  1  0  0  0  0
 14  9  1  0  0  0  0
M  END
$$$$
