14
butane_opt
C  -3.959752   0.294266  -0.039592
C  -2.695964  -0.653725   0.121006
H  -4.833603  -0.301534  -0.205049
H  -3.903098   0.828952  -0.875876
H  -4.175988   1.040976   0.848528
C  -1.387604   0.165142   0.042166
H  -2.743325  -1.247563  -0.694098
H  -2.706000  -1.372983   1.099844
C  -0.164864  -0.659607  -0.017985
H  -1.268664   0.921140   0.942934
H  -1.395339   0.734009  -0.824328
H  -0.105735  -1.250773   0.875144
H   0.724883  -0.078759  -0.042626
H  -0.131691  -1.501331  -0.962101
