butane_opt
 OpenBabel08242015423D

 14 13  0  0  0  0  0  0  0  0999 V2000
   -3.9196    0.2524   -0.0035 C   0  0  0  0  0  0  0  0  0  0  0  0
   -2.7042   -0.6030    0.0573 C   0  0  0  0  0  0  0  0  0  0  0  0
   -4.8340   -0.3712    0.0215 H   0  0  0  0  0  0  0  0  0  0  0  0
   -3.9249    0.9537   -0.9517 H   0  0  0  0  0  0  0  0  0  0  0  0
   -3.8341    0.8750    0.7962 H   0  0  0  0  0  0  0  0  0  0  0  0
   -1.4091    0.1877    0.0489 C   0  0  0  0  0  0  0  0  0  0  0  0
   -2.7023   -1.2674   -0.7634 H   0  0  0  0  0  0  0  0  0  0  0  0
   -2.7486   -1.1878    0.8953 H   0  0  0  0  0  0  0  0  0  0  0  0
   -0.1849   -0.6978   -0.0100 C   0  0  0  0  0  0  0  0  0  0  0  0
   -1.3922    0.9460    0.9794 H   0  0  0  0  0  0  0  0  0  0  0  0
   -1.4364    0.7759   -0.7647 H   0  0  0  0  0  0  0  0  0  0  0  0
   -0.0988   -1.4446    1.0094 H   0  0  0  0  0  0  0  0  0  0  0  0
    0.6556   -0.1454   -0.0881 H   0  0  0  0  0  0  0  0  0  0  0  0
   -0.1035   -1.2839   -0.8122 H   0  0  0  0  0  0  0  0  0  0  0  0
  1  3  1  0  0  0  0
  1  2  1  0  0  0  0
  1  5  1  0  0  0  0
  2  8  1  0  0  0  0
  4  1  1  0  0  0  0
  6  2  1  0  0  0  0
  6 10  1  0  0  0  0
  7  2  1  0  0  0  0
  9  6  1  0  0  0  0
  9 12  1  0  0  0  0
 11  6  1  0  0  0  0
 13  9  1  0  0  0  0
 14  9  1  0  0  0  0
M  END
$$$$
