14
butane_opt
C  -3.919585   0.252398  -0.003523
C  -2.704233  -0.603033   0.057252
H  -4.833964  -0.371200   0.021545
H  -3.924907   0.953690  -0.951651
H  -3.834080   0.875033   0.796189
C  -1.409142   0.187737   0.048906
H  -2.702300  -1.267364  -0.763396
H  -2.748613  -1.187816   0.895331
C  -0.184877  -0.697838  -0.010039
H  -1.392233   0.945966   0.979419
H  -1.436351   0.775889  -0.764654
H  -0.098781  -1.444554   1.009355
H   0.655625  -0.145358  -0.088139
H  -0.103535  -1.283924  -0.812211
