butane_opt
 OpenBabel08242015423D

 14 13  0  0  0  0  0  0  0  0999 V2000
   -3.9462    0.2822    0.0624 C   0  0  0  0  0  0  0  0  0  0  0  0
   -2.6753   -0.6236   -0.0168 C   0  0  0  0  0  0  0  0  0  0  0  0
   -4.8941   -0.3514    0.0803 H   0  0  0  0  0  0  0  0  0  0  0  0
   -3.9772    0.8944   -0.8207 H   0  0  0  0  0  0  0  0  0  0  0  0
   -3.9393    1.0113    0.9844 H   0  0  0  0  0  0  0  0  0  0  0  0
   -1.4124    0.1383   -0.0171 C   0  0  0  0  0  0  0  0  0  0  0  0
   -2.7311   -1.4315   -0.9723 H   0  0  0  0  0  0  0  0  0  0  0  0
   -2.6116   -1.1437    0.7999 H   0  0  0  0  0  0  0  0  0  0  0  0
   -0.1718   -0.6596    0.0688 C   0  0  0  0  0  0  0  0  0  0  0  0
   -1.3729    0.7640    0.8426 H   0  0  0  0  0  0  0  0  0  0  0  0
   -1.3702    0.8607   -0.9774 H   0  0  0  0  0  0  0  0  0  0  0  0
   -0.2068   -1.4731    1.1071 H   0  0  0  0  0  0  0  0  0  0  0  0
    0.7595   -0.0974   -0.0549 H   0  0  0  0  0  0  0  0  0  0  0  0
   -0.2139   -1.1468   -0.6911 H   0  0  0  0  0  0  0  0  0  0  0  0
  1  3  1  0  0  0  0
  1  5  1  0  0  0  0
  2  1  1  0  0  0  0
  2  8  1  0  0  0  0
  4  1  1  0  0  0  0
  6  2  1  0  0  0  0
  6  9  1  0  0  0  0
  6 10  1  0  0  0  0
  7  2  1  0  0  0  0
  9 12  1  0  0  0  0
 11  6  1  0  0  0  0
 13  9  1  0  0  0  0
 14  9  1  0  0  0  0
M  END
$$$$
