butane_opt
 OpenBabel08242015423D

 14 13  0  0  0  0  0  0  0  0999 V2000
   -3.9337    0.2919   -0.0301 C   0  0  0  0  0  0  0  0  0  0  0  0
   -2.6967   -0.6341    0.0710 C   0  0  0  0  0  0  0  0  0  0  0  0
   -4.8814   -0.3701   -0.0503 H   0  0  0  0  0  0  0  0  0  0  0  0
   -3.9382    1.0262   -0.9988 H   0  0  0  0  0  0  0  0  0  0  0  0
   -4.0005    0.8306    0.7651 H   0  0  0  0  0  0  0  0  0  0  0  0
   -1.4047    0.1574    0.1070 C   0  0  0  0  0  0  0  0  0  0  0  0
   -2.6218   -1.3048   -0.7524 H   0  0  0  0  0  0  0  0  0  0  0  0
   -2.6944   -1.2584    0.9708 H   0  0  0  0  0  0  0  0  0  0  0  0
   -0.1811   -0.6807   -0.0175 C   0  0  0  0  0  0  0  0  0  0  0  0
   -1.3044    0.8790    1.0096 H   0  0  0  0  0  0  0  0  0  0  0  0
   -1.3776    0.7921   -0.8374 H   0  0  0  0  0  0  0  0  0  0  0  0
   -0.0025   -1.3504    0.9148 H   0  0  0  0  0  0  0  0  0  0  0  0
    0.7737   -0.0322   -0.2573 H   0  0  0  0  0  0  0  0  0  0  0  0
   -0.3873   -1.2925   -0.8987 H   0  0  0  0  0  0  0  0  0  0  0  0
  1  2  1  0  0  0  0
  1  5  1  0  0  0  0
  2  6  1  0  0  0  0
  2  8  1  0  0  0  0
  3  1  1  0  0  0  0
  4  1  1  0  0  0  0
  6 10  1  0  0  0  0
  7  2  1  0  0  0  0
  9  6  1  0  0  0  0
  9 12  1  0  0  0  0
 11  6  1  0  0  0  0
 13  9  1  0  0  0  0
 14  9  1  0  0  0  0
M  END
$$$$
