14
butane_opt
C  -3.941329   0.267670   0.060512
C  -2.678547  -0.606276  -0.031756
H  -4.895374  -0.325690   0.201371
H  -4.127501   0.911027  -0.790244
H  -3.779799   0.925422   0.941504
C  -1.418187   0.164899  -0.041683
H  -2.694084  -1.341873  -0.864495
H  -2.649840  -1.234324   0.841979
C  -0.163172  -0.676282   0.093431
H  -1.410671   0.761812   0.761506
H  -1.363467   0.770283  -0.917205
H  -0.262373  -1.315611   0.991502
H   0.738593  -0.059358   0.067308
H  -0.161563  -1.357207  -0.767837
