14
butane_opt
C  -3.938895   0.277499  -0.019879
C  -2.682372  -0.630861   0.083281
H  -4.853674  -0.279145   0.088374
H  -4.002942   1.008830  -0.976238
H  -3.946175   0.898704   0.783225
C  -1.397599   0.167262   0.042330
H  -2.692062  -1.300060  -0.723516
H  -2.721406  -1.330953   1.053407
C  -0.183921  -0.673478  -0.005221
H  -1.316398   0.763723   0.849570
H  -1.391559   0.834728  -0.866461
H  -0.294124  -1.055970   0.806676
H   0.745746  -0.087067   0.226302
H  -0.119061  -1.611138  -1.046611
