butane_opt
 OpenBabel08242015423D

 14 13  0  0  0  0  0  0  0  0999 V2000
   -3.9543    0.2536    0.0284 C   0  0  0  0  0  0  0  0  0  0  0  0
   -2.7092   -0.6016    0.0192 C   0  0  0  0  0  0  0  0  0  0  0  0
   -4.8590   -0.3410    0.0257 H   0  0  0  0  0  0  0  0  0  0  0  0
   -3.9295    0.8739   -0.8791 H   0  0  0  0  0  0  0  0  0  0  0  0
   -3.9668    0.9132    0.8840 H   0  0  0  0  0  0  0  0  0  0  0  0
   -1.3993    0.1975    0.0203 C   0  0  0  0  0  0  0  0  0  0  0  0
   -2.7878   -1.3209   -0.8475 H   0  0  0  0  0  0  0  0  0  0  0  0
   -2.7530   -1.1740    0.8908 H   0  0  0  0  0  0  0  0  0  0  0  0
   -0.1417   -0.7091    0.0400 C   0  0  0  0  0  0  0  0  0  0  0  0
   -1.3851    0.8692    0.8585 H   0  0  0  0  0  0  0  0  0  0  0  0
   -1.4208    0.8404   -0.8724 H   0  0  0  0  0  0  0  0  0  0  0  0
   -0.0829   -1.4044    0.9669 H   0  0  0  0  0  0  0  0  0  0  0  0
    0.7590   -0.1362   -0.1320 H   0  0  0  0  0  0  0  0  0  0  0  0
   -0.1417   -1.2732   -0.7437 H   0  0  0  0  0  0  0  0  0  0  0  0
  1  5  1  0  0  0  0
  2  6  1  0  0  0  0
  2  1  1  0  0  0  0
  2  8  1  0  0  0  0
  3  1  1  0  0  0  0
  4  1  1  0  0  0  0
  6  9  1  0  0  0  0
  6 10  1  0  0  0  0
  7  2  1  0  0  0  0
  9 12  1  0  0  0  0
 11  6  1  0  0  0  0
 13  9  1  0  0  0  0
 14  9  1  0  0  0  0
M  END
$$$$
