butane_opt
 OpenBabel08242015423D

 14 13  0  0  0  0  0  0  0  0999 V2000
   -3.9460    0.2669   -0.0103 C   0  0  0  0  0  0  0  0  0  0  0  0
   -2.6759   -0.6096    0.0475 C   0  0  0  0  0  0  0  0  0  0  0  0
   -4.8477   -0.3307    0.0163 H   0  0  0  0  0  0  0  0  0  0  0  0
   -3.9773    0.8958   -0.9027 H   0  0  0  0  0  0  0  0  0  0  0  0
   -3.9172    0.8485    0.7800 H   0  0  0  0  0  0  0  0  0  0  0  0
   -1.4128    0.1703    0.0590 C   0  0  0  0  0  0  0  0  0  0  0  0
   -2.6563   -1.2184   -0.7932 H   0  0  0  0  0  0  0  0  0  0  0  0
   -2.7080   -1.2574    0.9452 H   0  0  0  0  0  0  0  0  0  0  0  0
   -0.1737   -0.6816    0.0162 C   0  0  0  0  0  0  0  0  0  0  0  0
   -1.3653    0.9153    0.9474 H   0  0  0  0  0  0  0  0  0  0  0  0
   -1.3862    0.7220   -0.7669 H   0  0  0  0  0  0  0  0  0  0  0  0
   -0.0537   -1.3914    0.9210 H   0  0  0  0  0  0  0  0  0  0  0  0
    0.7356   -0.1221   -0.2442 H   0  0  0  0  0  0  0  0  0  0  0  0
   -0.3419   -1.2855   -0.8141 H   0  0  0  0  0  0  0  0  0  0  0  0
  1  3  1  0  0  0  0
  1  2  1  0  0  0  0
  1  5  1  0  0  0  0
  2  6  1  0  0  0  0
  2  8  1  0  0  0  0
  4  1  1  0  0  0  0
  6 10  1  0  0  0  0
  7  2  1  0  0  0  0
  9  6  1  0  0  0  0
  9 12  1  0  0  0  0
 11  6  1  0  0  0  0
 13  9  1  0  0  0  0
 14  9  1  0  0  0  0
M  END
$$$$
