butane_opt
 OpenBabel08242015423D

 14 13  0  0  0  0  0  0  0  0999 V2000
   -3.9212    0.2597    0.0146 C   0  0  0  0  0  0  0  0  0  0  0  0
   -2.7023   -0.6070    0.0521 C   0  0  0  0  0  0  0  0  0  0  0  0
   -4.8497   -0.3575   -0.0792 H   0  0  0  0  0  0  0  0  0  0  0  0
   -3.8905    0.7782   -0.8157 H   0  0  0  0  0  0  0  0  0  0  0  0
   -4.0171    0.9702    0.8851 H   0  0  0  0  0  0  0  0  0  0  0  0
   -1.4075    0.2016    0.0062 C   0  0  0  0  0  0  0  0  0  0  0  0
   -2.7677   -1.2385   -0.7681 H   0  0  0  0  0  0  0  0  0  0  0  0
   -2.7007   -1.2686    0.9682 H   0  0  0  0  0  0  0  0  0  0  0  0
   -0.1681   -0.7085    0.0199 C   0  0  0  0  0  0  0  0  0  0  0  0
   -1.3984    0.8809    0.8562 H   0  0  0  0  0  0  0  0  0  0  0  0
   -1.4406    0.8136   -0.8901 H   0  0  0  0  0  0  0  0  0  0  0  0
   -0.1585   -1.3211    0.9477 H   0  0  0  0  0  0  0  0  0  0  0  0
    0.7385   -0.1086    0.0578 H   0  0  0  0  0  0  0  0  0  0  0  0
   -0.1449   -1.3787   -0.8279 H   0  0  0  0  0  0  0  0  0  0  0  0
  1  2  1  0  0  0  0
  1  5  1  0  0  0  0
  2  8  1  0  0  0  0
  3  1  1  0  0  0  0
  4  1  1  0  0  0  0
  6  9  1  0  0  0  0
  6  2  1  0  0  0  0
  6 10  1  0  0  0  0
  7  2  1  0  0  0  0
  9 13  1  0  0  0  0
  9 12  1  0  0  0  0
 11  6  1  0  0  0  0
 14  9  1  0  0  0  0
M  END
$$$$
