14
butane_opt
C  -3.934061   0.248729  -0.028542
C  -2.702569  -0.581474   0.086485
H  -4.870753  -0.415345   0.164076
H  -3.921284   0.941647  -1.002240
H  -3.929089   0.743009   0.730934
C  -1.403735   0.195960   0.057652
H  -2.718409  -1.194661  -0.724973
H  -2.703806  -1.255498   1.024464
C  -0.175078  -0.711030  -0.000830
H  -1.434963   0.849235   0.852596
H  -1.444746   0.884196  -0.856412
H  -0.086306  -1.086760   0.708055
H   0.731883  -0.150563   0.199604
H  -0.057517  -1.625827  -1.068416
