14
butane_opt
C  -3.959711   0.284975  -0.031958
C  -2.704732  -0.637011   0.060963
H  -4.916583  -0.297061   0.145070
H  -4.032678   0.965362  -0.978679
H  -3.990987   0.860712   0.781725
C  -1.397249   0.184124   0.080336
H  -2.657740  -1.311644  -0.799643
H  -2.780366  -1.355675   1.001239
C  -0.147778  -0.682980  -0.013769
H  -1.292924   0.944907   0.982587
H  -1.353198   0.723788  -0.735508
H  -0.071540  -1.404270   0.910143
H   0.768415  -0.091279  -0.149517
H  -0.183012  -1.288066  -0.860468
