14
butane_opt
C  -3.937874   0.242510   0.051508
C  -2.723201  -0.582226   0.011256
H  -4.914049  -0.388321  -0.069915
H  -3.964880   0.750532  -0.802461
H  -3.919556   0.995881   0.990175
C  -1.399683   0.206489  -0.013806
H  -2.630907  -1.274417  -0.842030
H  -2.741825  -1.155731   0.857859
C  -0.153003  -0.714681   0.056044
H  -1.399123   0.765390   0.745339
H  -1.342283   0.929813  -0.933789
H  -0.092918  -1.421246   1.030012
H   0.700252  -0.150280  -0.002453
H  -0.131476  -1.370913  -0.774470
