butane_opt
 OpenBabel08242015423D

 14 13  0  0  0  0  0  0  0  0999 V2000
   -3.9423    0.2469   -0.0171 C   0  0  0  0  0  0  0  0  0  0  0  0
   -2.6808   -0.5828    0.0759 C   0  0  0  0  0  0  0  0  0  0  0  0
   -4.9057   -0.4131    0.0965 H   0  0  0  0  0  0  0  0  0  0  0  0
   -3.9433    0.9548   -0.9489 H   0  0  0  0  0  0  0  0  0  0  0  0
   -3.9046    0.8251    0.7974 H   0  0  0  0  0  0  0  0  0  0  0  0
   -1.4119    0.1863    0.0248 C   0  0  0  0  0  0  0  0  0  0  0  0
   -2.7030   -1.1240   -0.6905 H   0  0  0  0  0  0  0  0  0  0  0  0
   -2.7136   -1.3491    1.0416 H   0  0  0  0  0  0  0  0  0  0  0  0
   -0.1728   -0.7044    0.0089 C   0  0  0  0  0  0  0  0  0  0  0  0
   -1.4080    0.8885    0.9091 H   0  0  0  0  0  0  0  0  0  0  0  0
   -1.4253    0.7682   -0.8684 H   0  0  0  0  0  0  0  0  0  0  0  0
   -0.1227   -1.0620    0.6735 H   0  0  0  0  0  0  0  0  0  0  0  0
    0.7249   -0.1512    0.2584 H   0  0  0  0  0  0  0  0  0  0  0  0
   -0.1172   -1.5663   -0.9672 H   0  0  0  0  0  0  0  0  0  0  0  0
  1  2  1  0  0  0  0
  1  3  1  0  0  0  0
  1  5  1  0  0  0  0
  2  8  1  0  0  0  0
  4  1  1  0  0  0  0
  6  2  1  0  0  0  0
  6 10  1  0  0  0  0
  7  2  1  0  0  0  0
  9  6  1  0  0  0  0
  9 13  1  0  0  0  0
  9 12  1  0  0  0  0
 11  6  1  0  0  0  0
 14  9  1  0  0  0  0
M  END
$$$$
