14
butane_opt
C  -3.928409   0.283357   0.049169
C  -2.690447  -0.631181   0.044070
H  -4.790178  -0.282295  -0.204579
H  -3.866443   0.727282  -0.748890
H  -4.064331   1.164069   1.059910
C  -1.413832   0.163348  -0.039604
H  -2.741703  -1.403743  -0.866103
H  -2.678309  -1.202159   0.858599
C  -0.191502  -0.677424   0.061909
H  -1.379198   0.693399   0.730923
H  -1.316908   0.822836  -0.953579
H  -0.231951  -1.348156   0.992176
H   0.797293  -0.029228  -0.024926
H  -0.080892  -1.248073  -0.770563
