butane_opt
 OpenBabel08242015423D

 14 13  0  0  0  0  0  0  0  0999 V2000
   -3.9284    0.2834    0.0492 C   0  0  0  0  0  0  0  0  0  0  0  0
   -2.6904   -0.6312    0.0441 C   0  0  0  0  0  0  0  0  0  0  0  0
   -4.7902   -0.2823   -0.2046 H   0  0  0  0  0  0  0  0  0  0  0  0
   -3.8664    0.7273   -0.7489 H   0  0  0  0  0  0  0  0  0  0  0  0
   -4.0643    1.1641    1.0599 H   0  0  0  0  0  0  0  0  0  0  0  0
   -1.4138    0.1633   -0.0396 C   0  0  0  0  0  0  0  0  0  0  0  0
   -2.7417   -1.4037   -0.8661 H   0  0  0  0  0  0  0  0  0  0  0  0
   -2.6783   -1.2022    0.8586 H   0  0  0  0  0  0  0  0  0  0  0  0
   -0.1915   -0.6774    0.0619 C   0  0  0  0  0  0  0  0  0  0  0  0
   -1.3792    0.6934    0.7309 H   0  0  0  0  0  0  0  0  0  0  0  0
   -1.3169    0.8228   -0.9536 H   0  0  0  0  0  0  0  0  0  0  0  0
   -0.2320   -1.3482    0.9922 H   0  0  0  0  0  0  0  0  0  0  0  0
    0.7973   -0.0292   -0.0249 H   0  0  0  0  0  0  0  0  0  0  0  0
   -0.0809   -1.2481   -0.7706 H   0  0  0  0  0  0  0  0  0  0  0  0
  1  5  1  0  0  0  0
  2  1  1  0  0  0  0
  2  8  1  0  0  0  0
  3  1  1  0  0  0  0
  4  1  1  0  0  0  0
  6  2  1  0  0  0  0
  6  9  1  0  0  0  0
  6 10  1  0  0  0  0
  7  2  1  0  0  0  0
  9 12  1  0  0  0  0
 11  6  1  0  0  0  0
 13  9  1  0  0  0  0
 14  9  1  0  0  0  0
M  END
$$$$
