butane_opt
 OpenBabel08242015423D

 14 13  0  0  0  0  0  0  0  0999 V2000
   -3.9341    0.2487   -0.0285 C   0  0  0  0  0  0  0  0  0  0  0  0
   -2.7026   -0.5815    0.0865 C   0  0  0  0  0  0  0  0  0  0  0  0
   -4.8708   -0.4153    0.1641 H   0  0  0  0  0  0  0  0  0  0  0  0
   -3.9213    0.9416   -1.0022 H   0  0  0  0  0  0  0  0  0  0  0  0
   -3.9291    0.7430    0.7309 H   0  0  0  0  0  0  0  0  0  0  0  0
   -1.4037    0.1960    0.0577 C   0  0  0  0  0  0  0  0  0  0  0  0
   -2.7184   -1.1947   -0.7250 H   0  0  0  0  0  0  0  0  0  0  0  0
   -2.7038   -1.2555    1.0245 H   0  0  0  0  0  0  0  0  0  0  0  0
   -0.1751   -0.7110   -0.0008 C   0  0  0  0  0  0  0  0  0  0  0  0
   -1.4350    0.8492    0.8526 H   0  0  0  0  0  0  0  0  0  0  0  0
   -1.4447    0.8842   -0.8564 H   0  0  0  0  0  0  0  0  0  0  0  0
   -0.0863   -1.0868    0.7081 H   0  0  0  0  0  0  0  0  0  0  0  0
    0.7319   -0.1506    0.1996 H   0  0  0  0  0  0  0  0  0  0  0  0
   -0.0575   -1.6258   -1.0684 H   0  0  0  0  0  0  0  0  0  0  0  0
  1  2  1  0  0  0  0
  1  3  1  0  0  0  0
  1  5  1  0  0  0  0
  2  8  1  0  0  0  0
  4  1  1  0  0  0  0
  6  2  1  0  0  0  0
  6 10  1  0  0  0  0
  7  2  1  0  0  0  0
  9  6  1  0  0  0  0
  9 13  1  0  0  0  0
  9 12  1  0  0  0  0
 11  6  1  0  0  0  0
 14  9  1  0  0  0  0
M  END
$$$$
