14
butane_opt
C  -3.970776   0.280867  -0.025195
C  -2.688589  -0.648688   0.043253
H  -4.836082  -0.293915   0.292826
H  -4.120271   1.134778  -1.010520
H  -3.922760   0.845746   0.785226
C  -1.401967   0.161706   0.068472
H  -2.667964  -1.269194  -0.778823
H  -2.818273  -1.339560   0.973411
C  -0.147657  -0.669442  -0.007074
H  -1.386665   0.926066   1.013776
H  -1.345372   0.722024  -0.807921
H  -0.099475  -1.260730   0.867456
H   0.809443  -0.050056   0.000773
H  -0.146195  -1.355937  -0.866272
