14
butane_opt
C  -3.929475   0.247192  -0.013825
C  -2.702370  -0.579934   0.105001
H  -4.893910  -0.413647  -0.282214
H  -3.754966   0.701459  -0.834839
H  -4.014739   0.986978   0.868474
C  -1.400617   0.193221   0.019309
H  -2.763065  -1.161976  -0.678974
H  -2.675717  -1.203663   1.024239
C  -0.169432  -0.713239   0.002615
H  -1.381356   0.937889   0.936062
H  -1.473746   0.796299  -0.867585
H  -0.139394  -1.323363   0.840715
H   0.684904  -0.174613  -0.049920
H  -0.174965  -1.410167  -0.876750
