14
butane_opt
C  -3.946491   0.250991  -0.016727
C  -2.729945  -0.612937   0.123464
H  -4.867538  -0.361355  -0.192420
H  -3.754633   0.810743  -0.939120
H  -4.095906   0.934000   0.805548
C  -1.403880   0.229030   0.032824
H  -2.663313  -1.275032  -0.698675
H  -2.741675  -1.212656   0.967878
C  -0.141351  -0.711919  -0.012053
H  -1.333983   0.939686   0.895840
H  -1.409539   0.810319  -0.848020
H  -0.003400  -1.296674   0.803972
H   0.689217  -0.215942   0.031978
H  -0.173534  -1.480712  -0.907508
