butane_opt
 OpenBabel08242015423D

 14 13  0  0  0  0  0  0  0  0999 V2000
   -3.9455    0.2582    0.0517 C   0  0  0  0  0  0  0  0  0  0  0  0
   -2.7161   -0.6057    0.0123 C   0  0  0  0  0  0  0  0  0  0  0  0
   -4.9085   -0.3519    0.0770 H   0  0  0  0  0  0  0  0  0  0  0  0
   -4.0325    0.8483   -0.8304 H   0  0  0  0  0  0  0  0  0  0  0  0
   -3.8729    0.9596    0.9490 H   0  0  0  0  0  0  0  0  0  0  0  0
   -1.4068    0.1921   -0.0401 C   0  0  0  0  0  0  0  0  0  0  0  0
   -2.7538   -1.3007   -0.8600 H   0  0  0  0  0  0  0  0  0  0  0  0
   -2.6856   -1.1888    0.8816 H   0  0  0  0  0  0  0  0  0  0  0  0
   -0.1420   -0.7023    0.0651 C   0  0  0  0  0  0  0  0  0  0  0  0
   -1.3910    0.8491    0.7845 H   0  0  0  0  0  0  0  0  0  0  0  0
   -1.3374    0.8235   -0.9591 H   0  0  0  0  0  0  0  0  0  0  0  0
   -0.2224   -1.3124    0.9666 H   0  0  0  0  0  0  0  0  0  0  0  0
    0.7411   -0.1291    0.1613 H   0  0  0  0  0  0  0  0  0  0  0  0
   -0.0263   -1.3902   -0.8008 H   0  0  0  0  0  0  0  0  0  0  0  0
  1  3  1  0  0  0  0
  1  5  1  0  0  0  0
  2  1  1  0  0  0  0
  2  8  1  0  0  0  0
  4  1  1  0  0  0  0
  6  2  1  0  0  0  0
  6  9  1  0  0  0  0
  6 10  1  0  0  0  0
  7  2  1  0  0  0  0
  9 13  1  0  0  0  0
  9 12  1  0  0  0  0
 11  6  1  0  0  0  0
 14  9  1  0  0  0  0
M  END
$$$$
