butane_opt
 OpenBabel08242015423D

 14 13  0  0  0  0  0  0  0  0999 V2000
   -3.9354    0.2788   -0.0241 C   0  0  0  0  0  0  0  0  0  0  0  0
   -2.6910   -0.6341    0.0580 C   0  0  0  0  0  0  0  0  0  0  0  0
   -4.8595   -0.3414   -0.0332 H   0  0  0  0  0  0  0  0  0  0  0  0
   -3.9620    0.8514   -0.8986 H   0  0  0  0  0  0  0  0  0  0  0  0
   -3.9909    0.9129    0.7981 H   0  0  0  0  0  0  0  0  0  0  0  0
   -1.3868    0.1894    0.0741 C   0  0  0  0  0  0  0  0  0  0  0  0
   -2.6049   -1.2387   -0.7060 H   0  0  0  0  0  0  0  0  0  0  0  0
   -2.7407   -1.2684    0.9900 H   0  0  0  0  0  0  0  0  0  0  0  0
   -0.1950   -0.6922   -0.0091 C   0  0  0  0  0  0  0  0  0  0  0  0
   -1.3013    0.9156    1.0050 H   0  0  0  0  0  0  0  0  0  0  0  0
   -1.4875    0.7609   -0.7922 H   0  0  0  0  0  0  0  0  0  0  0  0
   -0.0881   -1.3721    0.9482 H   0  0  0  0  0  0  0  0  0  0  0  0
    0.7394   -0.1384   -0.2478 H   0  0  0  0  0  0  0  0  0  0  0  0
   -0.2291   -1.2545   -0.8047 H   0  0  0  0  0  0  0  0  0  0  0  0
  1  2  1  0  0  0  0
  1  5  1  0  0  0  0
  2  6  1  0  0  0  0
  2  8  1  0  0  0  0
  3  1  1  0  0  0  0
  4  1  1  0  0  0  0
  6 10  1  0  0  0  0
  7  2  1  0  0  0  0
  9  6  1  0  0  0  0
  9 12  1  0  0  0  0
 11  6  1  0  0  0  0
 13  9  1  0  0  0  0
 14  9  1  0  0  0  0
M  END
$$$$
