14
butane_opt
C  -3.925634   0.274720   0.032748
C  -2.697590  -0.623736   0.011816
H  -4.850738  -0.271644   0.247931
H  -4.100183   1.004797  -0.920496
H  -3.871308   0.820703   0.848072
C  -1.402521   0.170616  -0.014457
H  -2.679518  -1.350631  -0.880418
H  -2.650595  -1.180925   0.856500
C  -0.173491  -0.687229   0.043519
H  -1.398326   0.877157   0.877534
H  -1.377295   0.715073  -0.796122
H  -0.299418  -1.349456   0.995820
H   0.809583  -0.019570   0.097183
H  -0.207740  -1.322152  -0.779320
