14
butane_opt
C  -3.935422   0.278800  -0.024110
C  -2.690998  -0.634071   0.058048
H  -4.859548  -0.341420  -0.033189
H  -3.961985   0.851360  -0.898556
H  -3.990912   0.912921   0.798123
C  -1.386800   0.189392   0.074121
H  -2.604857  -1.238654  -0.705963
H  -2.740665  -1.268373   0.989989
C  -0.195047  -0.692225  -0.009051
H  -1.301251   0.915622   1.004998
H  -1.487461   0.760863  -0.792200
H  -0.088096  -1.372051   0.948227
H   0.739387  -0.138385  -0.247787
H  -0.229101  -1.254541  -0.804730
