14
butane_opt
C  -3.932469   0.254019   0.000847
C  -2.703400  -0.599182   0.056003
H  -4.863973  -0.349513   0.062357
H  -3.954123   0.918655  -0.943986
H  -3.969716   0.852000   0.827115
C  -1.402910   0.196772   0.036887
H  -2.682437  -1.345619  -0.837059
H  -2.726977  -1.195776   0.919734
C  -0.165758  -0.702866   0.010886
H  -1.348959   0.897184   0.889392
H  -1.435482   0.794499  -0.814416
H  -0.068910  -1.358334   0.952606
H   0.690987  -0.147181  -0.051689
H  -0.195609  -1.328242  -0.813351
