butane_opt
 OpenBabel08242015423D

 14 13  0  0  0  0  0  0  0  0999 V2000
   -3.9414    0.2806   -0.0312 C   0  0  0  0  0  0  0  0  0  0  0  0
   -2.6701   -0.6514    0.0849 C   0  0  0  0  0  0  0  0  0  0  0  0
   -4.8506   -0.3141    0.0950 H   0  0  0  0  0  0  0  0  0  0  0  0
   -4.0001    1.0324   -1.0149 H   0  0  0  0  0  0  0  0  0  0  0  0
   -3.9838    0.8926    0.7558 H   0  0  0  0  0  0  0  0  0  0  0  0
   -1.3933    0.1639    0.0759 C   0  0  0  0  0  0  0  0  0  0  0  0
   -2.6289   -1.3715   -0.8052 H   0  0  0  0  0  0  0  0  0  0  0  0
   -2.6977   -1.2214    0.9331 H   0  0  0  0  0  0  0  0  0  0  0  0
   -0.2033   -0.6760   -0.0171 C   0  0  0  0  0  0  0  0  0  0  0  0
   -1.3731    0.9371    0.9834 H   0  0  0  0  0  0  0  0  0  0  0  0
   -1.4368    0.8281   -0.7776 H   0  0  0  0  0  0  0  0  0  0  0  0
   -0.0579   -1.3580    0.8909 H   0  0  0  0  0  0  0  0  0  0  0  0
    0.7368   -0.0119   -0.0898 H   0  0  0  0  0  0  0  0  0  0  0  0
   -0.2420   -1.2892   -0.8800 H   0  0  0  0  0  0  0  0  0  0  0  0
  1  2  1  0  0  0  0
  1  3  1  0  0  0  0
  1  5  1  0  0  0  0
  2  8  1  0  0  0  0
  4  1  1  0  0  0  0
  6  2  1  0  0  0  0
  6 10  1  0  0  0  0
  7  2  1  0  0  0  0
  9  6  1  0  0  0  0
  9 12  1  0  0  0  0
 11  6  1  0  0  0  0
 13  9  1  0  0  0  0
 14  9  1  0  0  0  0
M  END
$$$$
