14
butane_opt
C  -3.965964   0.288792  -0.031715
C  -2.724931  -0.630520   0.058026
H  -4.795698  -0.269484   0.277155
H  -4.152908   1.081004  -1.007850
H  -3.914842   0.777651   0.715127
C  -1.385151   0.150647   0.065420
H  -2.687367  -1.295286  -0.799871
H  -2.717044  -1.322219   0.993467
C  -0.147238  -0.675980  -0.006579
H  -1.312036   0.944395   1.020253
H  -1.380989   0.693529  -0.786753
H  -0.068357  -1.288627   0.847975
H   0.843360   0.006059   0.048683
H  -0.181410  -1.366357  -0.904511
