butane_opt
 OpenBabel08242015423D

 14 13  0  0  0  0  0  0  0  0999 V2000
   -3.9507    0.2787    0.0507 C   0  0  0  0  0  0  0  0  0  0  0  0
   -2.6804   -0.6303   -0.0039 C   0  0  0  0  0  0  0  0  0  0  0  0
   -4.8124   -0.2940    0.0174 H   0  0  0  0  0  0  0  0  0  0  0  0
   -4.0319    0.7936   -0.7485 H   0  0  0  0  0  0  0  0  0  0  0  0
   -3.9346    1.0402    0.9675 H   0  0  0  0  0  0  0  0  0  0  0  0
   -1.3839    0.1761   -0.0104 C   0  0  0  0  0  0  0  0  0  0  0  0
   -2.7269   -1.4287   -0.9530 H   0  0  0  0  0  0  0  0  0  0  0  0
   -2.7090   -1.1527    0.7972 H   0  0  0  0  0  0  0  0  0  0  0  0
   -0.1879   -0.6751    0.0690 C   0  0  0  0  0  0  0  0  0  0  0  0
   -1.4311    0.7315    0.7636 H   0  0  0  0  0  0  0  0  0  0  0  0
   -1.2881    0.8436   -0.9036 H   0  0  0  0  0  0  0  0  0  0  0  0
   -0.1257   -1.4671    1.0926 H   0  0  0  0  0  0  0  0  0  0  0  0
    0.6947   -0.1511   -0.1983 H   0  0  0  0  0  0  0  0  0  0  0  0
   -0.2236   -1.1686   -0.6397 H   0  0  0  0  0  0  0  0  0  0  0  0
  1  5  1  0  0  0  0
  2  1  1  0  0  0  0
  2  8  1  0  0  0  0
  3  1  1  0  0  0  0
  4  1  1  0  0  0  0
  6  2  1  0  0  0  0
  6  9  1  0  0  0  0
  6 10  1  0  0  0  0
  7  2  1  0  0  0  0
  9 12  1  0  0  0  0
 11  6  1  0  0  0  0
 13  9  1  0  0  0  0
 14  9  1  0  0  0  0
M  END
$$$$
