butane_opt
 OpenBabel08242015423D

 14 13  0  0  0  0  0  0  0  0999 V2000
   -3.9585    0.2735    0.0423 C   0  0  0  0  0  0  0  0  0  0  0  0
   -2.6962   -0.6226    0.0312 C   0  0  0  0  0  0  0  0  0  0  0  0
   -4.8606   -0.3012   -0.0805 H   0  0  0  0  0  0  0  0  0  0  0  0
   -3.9556    0.7535   -0.7904 H   0  0  0  0  0  0  0  0  0  0  0  0
   -4.0463    1.0284    0.9609 H   0  0  0  0  0  0  0  0  0  0  0  0
   -1.3992    0.1797   -0.0300 C   0  0  0  0  0  0  0  0  0  0  0  0
   -2.7724   -1.3272   -0.8584 H   0  0  0  0  0  0  0  0  0  0  0  0
   -2.6502   -1.2528    0.9218 H   0  0  0  0  0  0  0  0  0  0  0  0
   -0.1550   -0.6924    0.0609 C   0  0  0  0  0  0  0  0  0  0  0  0
   -1.3728    0.8509    0.8159 H   0  0  0  0  0  0  0  0  0  0  0  0
   -1.3858    0.8361   -0.9662 H   0  0  0  0  0  0  0  0  0  0  0  0
   -0.1876   -1.3064    0.9581 H   0  0  0  0  0  0  0  0  0  0  0  0
    0.8149   -0.0585    0.0070 H   0  0  0  0  0  0  0  0  0  0  0  0
   -0.1042   -1.3470   -0.7751 H   0  0  0  0  0  0  0  0  0  0  0  0
  1  5  1  0  0  0  0
  2  1  1  0  0  0  0
  2  8  1  0  0  0  0
  3  1  1  0  0  0  0
  4  1  1  0  0  0  0
  6  2  1  0  0  0  0
  6  9  1  0  0  0  0
  6 10  1  0  0  0  0
  7  2  1  0  0  0  0
  9 12  1  0  0  0  0
 11  6  1  0  0  0  0
 13  9  1  0  0  0  0
 14  9  1  0  0  0  0
M  END
$$$$
