butane_opt
 OpenBabel08242015423D

 14 13  0  0  0  0  0  0  0  0999 V2000
   -3.9702    0.2466   -0.0178 C   0  0  0  0  0  0  0  0  0  0  0  0
   -2.7126   -0.5984    0.0948 C   0  0  0  0  0  0  0  0  0  0  0  0
   -4.8749   -0.3592    0.1992 H   0  0  0  0  0  0  0  0  0  0  0  0
   -3.9505    1.0517   -1.0550 H   0  0  0  0  0  0  0  0  0  0  0  0
   -4.0143    0.7092    0.6435 H   0  0  0  0  0  0  0  0  0  0  0  0
   -1.3920    0.1962    0.0454 C   0  0  0  0  0  0  0  0  0  0  0  0
   -2.6633   -1.2585   -0.7936 H   0  0  0  0  0  0  0  0  0  0  0  0
   -2.7336   -1.1860    0.9779 H   0  0  0  0  0  0  0  0  0  0  0  0
   -0.1352   -0.7073   -0.0048 C   0  0  0  0  0  0  0  0  0  0  0  0
   -1.3686    0.9571    0.9504 H   0  0  0  0  0  0  0  0  0  0  0  0
   -1.4074    0.7957   -0.8098 H   0  0  0  0  0  0  0  0  0  0  0  0
   -0.1207   -1.1285    0.7627 H   0  0  0  0  0  0  0  0  0  0  0  0
    0.7152   -0.1499    0.1219 H   0  0  0  0  0  0  0  0  0  0  0  0
   -0.0706   -1.5707   -1.0028 H   0  0  0  0  0  0  0  0  0  0  0  0
  1  2  1  0  0  0  0
  1  3  1  0  0  0  0
  1  5  1  0  0  0  0
  2  8  1  0  0  0  0
  4  1  1  0  0  0  0
  6  2  1  0  0  0  0
  6 10  1  0  0  0  0
  7  2  1  0  0  0  0
  9  6  1  0  0  0  0
  9 13  1  0  0  0  0
  9 12  1  0  0  0  0
 11  6  1  0  0  0  0
 14  9  1  0  0  0  0
M  END
$$$$
