14
butane_opt
C  -3.963246   0.250268   0.053626
C  -2.710357  -0.608552  -0.014146
H  -4.893417  -0.326078  -0.023157
H  -4.056733   0.764344  -0.751906
H  -3.909212   1.014259   0.974039
C  -1.406943   0.215693  -0.006564
H  -2.797490  -1.361103  -0.977518
H  -2.635900  -1.152450   0.790263
C  -0.130329  -0.718189   0.081079
H  -1.454742   0.784765   0.791238
H  -1.354983   0.862660  -0.933196
H   0.030434  -1.478515   1.111215
H   0.817338  -0.116526  -0.271736
H  -0.231290  -1.127294  -0.618418
