butane_opt
 OpenBabel08242015423D

 14 13  0  0  0  0  0  0  0  0999 V2000
   -3.9632    0.2503    0.0536 C   0  0  0  0  0  0  0  0  0  0  0  0
   -2.7104   -0.6086   -0.0141 C   0  0  0  0  0  0  0  0  0  0  0  0
   -4.8934   -0.3261   -0.0232 H   0  0  0  0  0  0  0  0  0  0  0  0
   -4.0567    0.7643   -0.7519 H   0  0  0  0  0  0  0  0  0  0  0  0
   -3.9092    1.0143    0.9740 H   0  0  0  0  0  0  0  0  0  0  0  0
   -1.4069    0.2157   -0.0066 C   0  0  0  0  0  0  0  0  0  0  0  0
   -2.7975   -1.3611   -0.9775 H   0  0  0  0  0  0  0  0  0  0  0  0
   -2.6359   -1.1524    0.7903 H   0  0  0  0  0  0  0  0  0  0  0  0
   -0.1303   -0.7182    0.0811 C   0  0  0  0  0  0  0  0  0  0  0  0
   -1.4547    0.7848    0.7912 H   0  0  0  0  0  0  0  0  0  0  0  0
   -1.3550    0.8627   -0.9332 H   0  0  0  0  0  0  0  0  0  0  0  0
    0.0304   -1.4785    1.1112 H   0  0  0  0  0  0  0  0  0  0  0  0
    0.8173   -0.1165   -0.2717 H   0  0  0  0  0  0  0  0  0  0  0  0
   -0.2313   -1.1273   -0.6184 H   0  0  0  0  0  0  0  0  0  0  0  0
  1  5  1  0  0  0  0
  2  6  1  0  0  0  0
  2  1  1  0  0  0  0
  2  8  1  0  0  0  0
  3  1  1  0  0  0  0
  4  1  1  0  0  0  0
  6  9  1  0  0  0  0
  6 10  1  0  0  0  0
  7  2  1  0  0  0  0
  9 12  1  0  0  0  0
 11  6  1  0  0  0  0
 13  9  1  0  0  0  0
 14  9  1  0  0  0  0
M  END
$$$$
