14
butane_opt
C  -3.970166   0.246649  -0.017763
C  -2.712569  -0.598390   0.094816
H  -4.874850  -0.359166   0.199159
H  -3.950532   1.051734  -1.054991
H  -4.014325   0.709160   0.643469
C  -1.392047   0.196171   0.045391
H  -2.663299  -1.258469  -0.793621
H  -2.733593  -1.185986   0.977869
C  -0.135178  -0.707305  -0.004791
H  -1.368583   0.957079   0.950434
H  -1.407389   0.795704  -0.809816
H  -0.120699  -1.128462   0.762745
H   0.715227  -0.149940   0.121938
H  -0.070624  -1.570669  -1.002801
