butane_opt
 OpenBabel08242015423D

 14 13  0  0  0  0  0  0  0  0999 V2000
   -3.9287    0.2463    0.0685 C   0  0  0  0  0  0  0  0  0  0  0  0
   -2.7106   -0.5796   -0.0102 C   0  0  0  0  0  0  0  0  0  0  0  0
   -4.8283   -0.3814   -0.0600 H   0  0  0  0  0  0  0  0  0  0  0  0
   -3.8625    0.7863   -0.7744 H   0  0  0  0  0  0  0  0  0  0  0  0
   -3.8925    1.0243    1.0036 H   0  0  0  0  0  0  0  0  0  0  0  0
   -1.4127    0.1855   -0.0141 C   0  0  0  0  0  0  0  0  0  0  0  0
   -2.8240   -1.3832   -0.9767 H   0  0  0  0  0  0  0  0  0  0  0  0
   -2.7598   -1.1205    0.7693 H   0  0  0  0  0  0  0  0  0  0  0  0
   -0.1530   -0.7120    0.0736 C   0  0  0  0  0  0  0  0  0  0  0  0
   -1.4171    0.8158    0.7802 H   0  0  0  0  0  0  0  0  0  0  0  0
   -1.4667    0.9043   -0.9657 H   0  0  0  0  0  0  0  0  0  0  0  0
   -0.0999   -1.5391    1.0869 H   0  0  0  0  0  0  0  0  0  0  0  0
    0.7319   -0.1507   -0.1687 H   0  0  0  0  0  0  0  0  0  0  0  0
   -0.1471   -1.1022   -0.6268 H   0  0  0  0  0  0  0  0  0  0  0  0
  1  5  1  0  0  0  0
  2  1  1  0  0  0  0
  2  8  1  0  0  0  0
  3  1  1  0  0  0  0
  4  1  1  0  0  0  0
  6  2  1  0  0  0  0
  6  9  1  0  0  0  0
  6 10  1  0  0  0  0
  7  2  1  0  0  0  0
  9 12  1  0  0  0  0
 11  6  1  0  0  0  0
 13  9  1  0  0  0  0
 14  9  1  0  0  0  0
M  END
$$$$
