14
butane_opt
C  -3.939257   0.250736  -0.035480
C  -2.703447  -0.588875   0.080348
H  -4.832005  -0.352952  -0.054944
H  -3.811831   0.904464  -0.959161
H  -3.943196   0.852058   0.750136
C  -1.425022   0.182601   0.105513
H  -2.568611  -1.289483  -0.733013
H  -2.754638  -1.221902   1.003656
C  -0.165868  -0.698271  -0.016490
H  -1.381872   0.862549   0.969728
H  -1.430376   0.804776  -0.808163
H   0.026917  -1.364776   0.874009
H   0.732283  -0.102706  -0.306930
H  -0.268866  -1.311572  -0.904599
