14
butane_opt
C  -3.987190   0.279468  -0.036650
C  -2.683924  -0.620303   0.110231
H  -4.875514  -0.291150  -0.150074
H  -3.897733   0.757731  -0.856305
H  -4.111561   1.015065   0.865342
C  -1.381812   0.167558   0.045806
H  -2.659384  -1.287236  -0.707281
H  -2.799822  -1.316943   1.048636
C  -0.155192  -0.676089  -0.010295
H  -1.266059   0.770158   0.872169
H  -1.446770   0.835610  -0.824641
H  -0.052126  -1.193419   0.824622
H   0.769151  -0.135372  -0.001850
H  -0.192965  -1.428202  -0.926367
