butane_opt
 OpenBabel08242015423D

 14 13  0  0  0  0  0  0  0  0999 V2000
   -3.9373    0.2478    0.0599 C   0  0  0  0  0  0  0  0  0  0  0  0
   -2.7088   -0.6001    0.0142 C   0  0  0  0  0  0  0  0  0  0  0  0
   -4.8659   -0.3624    0.0230 H   0  0  0  0  0  0  0  0  0  0  0  0
   -3.8766    0.8533   -0.8431 H   0  0  0  0  0  0  0  0  0  0  0  0
   -3.8917    0.9389    0.9419 H   0  0  0  0  0  0  0  0  0  0  0  0
   -1.4179    0.2096   -0.0351 C   0  0  0  0  0  0  0  0  0  0  0  0
   -2.7411   -1.3693   -0.8590 H   0  0  0  0  0  0  0  0  0  0  0  0
   -2.6318   -1.2371    0.9107 H   0  0  0  0  0  0  0  0  0  0  0  0
   -0.1649   -0.7071    0.0599 C   0  0  0  0  0  0  0  0  0  0  0  0
   -1.4991    0.8399    0.7741 H   0  0  0  0  0  0  0  0  0  0  0  0
   -1.3173    0.9142   -0.9900 H   0  0  0  0  0  0  0  0  0  0  0  0
   -0.2088   -1.2261    0.9258 H   0  0  0  0  0  0  0  0  0  0  0  0
    0.7184   -0.2157    0.1521 H   0  0  0  0  0  0  0  0  0  0  0  0
    0.0384   -1.4114   -0.8016 H   0  0  0  0  0  0  0  0  0  0  0  0
  1  5  1  0  0  0  0
  2  1  1  0  0  0  0
  2  8  1  0  0  0  0
  3  1  1  0  0  0  0
  4  1  1  0  0  0  0
  6  2  1  0  0  0  0
  6  9  1  0  0  0  0
  6 10  1  0  0  0  0
  7  2  1  0  0  0  0
  9 13  1  0  0  0  0
  9 12  1  0  0  0  0
 11  6  1  0  0  0  0
 14  9  1  0  0  0  0
M  END
$$$$
