butane_opt
 OpenBabel08242015423D

 14 13  0  0  0  0  0  0  0  0999 V2000
   -3.9382    0.2382   -0.0420 C   0  0  0  0  0  0  0  0  0  0  0  0
   -2.7199   -0.5897    0.0941 C   0  0  0  0  0  0  0  0  0  0  0  0
   -4.8667   -0.3491   -0.0214 H   0  0  0  0  0  0  0  0  0  0  0  0
   -3.8289    0.8862   -0.9888 H   0  0  0  0  0  0  0  0  0  0  0  0
   -4.0619    0.8810    0.7989 H   0  0  0  0  0  0  0  0  0  0  0  0
   -1.4247    0.2021    0.0942 C   0  0  0  0  0  0  0  0  0  0  0  0
   -2.7084   -1.1918   -0.6948 H   0  0  0  0  0  0  0  0  0  0  0  0
   -2.8050   -1.2173    0.9913 H   0  0  0  0  0  0  0  0  0  0  0  0
   -0.1334   -0.7218   -0.0253 C   0  0  0  0  0  0  0  0  0  0  0  0
   -1.3994    0.9195    0.9302 H   0  0  0  0  0  0  0  0  0  0  0  0
   -1.3963    0.8446   -0.8083 H   0  0  0  0  0  0  0  0  0  0  0  0
    0.0817   -1.2965    0.8324 H   0  0  0  0  0  0  0  0  0  0  0  0
    0.7701   -0.0850   -0.1634 H   0  0  0  0  0  0  0  0  0  0  0  0
   -0.2122   -1.4168   -0.8883 H   0  0  0  0  0  0  0  0  0  0  0  0
  1  3  1  0  0  0  0
  1  2  1  0  0  0  0
  1  5  1  0  0  0  0
  2  6  1  0  0  0  0
  2  8  1  0  0  0  0
  4  1  1  0  0  0  0
  6 10  1  0  0  0  0
  7  2  1  0  0  0  0
  9  6  1  0  0  0  0
  9 12  1  0  0  0  0
 11  6  1  0  0  0  0
 13  9  1  0  0  0  0
 14  9  1  0  0  0  0
M  END
$$$$
