butane_opt
 OpenBabel08242015423D

 14 13  0  0  0  0  0  0  0  0999 V2000
   -3.9872    0.2795   -0.0367 C   0  0  0  0  0  0  0  0  0  0  0  0
   -2.6839   -0.6203    0.1102 C   0  0  0  0  0  0  0  0  0  0  0  0
   -4.8755   -0.2912   -0.1501 H   0  0  0  0  0  0  0  0  0  0  0  0
   -3.8977    0.7577   -0.8563 H   0  0  0  0  0  0  0  0  0  0  0  0
   -4.1116    1.0151    0.8653 H   0  0  0  0  0  0  0  0  0  0  0  0
   -1.3818    0.1676    0.0458 C   0  0  0  0  0  0  0  0  0  0  0  0
   -2.6594   -1.2872   -0.7073 H   0  0  0  0  0  0  0  0  0  0  0  0
   -2.7998   -1.3169    1.0486 H   0  0  0  0  0  0  0  0  0  0  0  0
   -0.1552   -0.6761   -0.0103 C   0  0  0  0  0  0  0  0  0  0  0  0
   -1.2661    0.7702    0.8722 H   0  0  0  0  0  0  0  0  0  0  0  0
   -1.4468    0.8356   -0.8246 H   0  0  0  0  0  0  0  0  0  0  0  0
   -0.0521   -1.1934    0.8246 H   0  0  0  0  0  0  0  0  0  0  0  0
    0.7692   -0.1354   -0.0019 H   0  0  0  0  0  0  0  0  0  0  0  0
   -0.1930   -1.4282   -0.9264 H   0  0  0  0  0  0  0  0  0  0  0  0
  1  2  1  0  0  0  0
  1  5  1  0  0  0  0
  2  8  1  0  0  0  0
  3  1  1  0  0  0  0
  4  1  1  0  0  0  0
  6  2  1  0  0  0  0
  6 10  1  0  0  0  0
  7  2  1  0  0  0  0
  9 13  1  0  0  0  0
  9  6  1  0  0  0  0
  9 12  1  0  0  0  0
 11  6  1  0  0  0  0
 14  9  1  0  0  0  0
M  END
$$$$
