14
butane_opt
C  -3.962529   0.280680   0.002107
C  -2.701832  -0.633789   0.035337
H  -4.903428  -0.327656   0.261623
H  -4.120996   1.130239  -1.022600
H  -3.835478   0.746765   0.725775
C  -1.388503   0.192483   0.040163
H  -2.663178  -1.341877  -0.818989
H  -2.716614  -1.236532   0.932633
C  -0.158715  -0.689439   0.020485
H  -1.284005   0.808732   0.905374
H  -1.358730   0.720148  -0.796504
H  -0.165373  -1.194931   0.891304
H   0.768154  -0.111849   0.065136
H  -0.199219  -1.455307  -0.915033
