butane_opt
 OpenBabel08242015423D

 14 13  0  0  0  0  0  0  0  0999 V2000
   -3.9393    0.2507   -0.0355 C   0  0  0  0  0  0  0  0  0  0  0  0
   -2.7034   -0.5889    0.0803 C   0  0  0  0  0  0  0  0  0  0  0  0
   -4.8320   -0.3530   -0.0549 H   0  0  0  0  0  0  0  0  0  0  0  0
   -3.8118    0.9045   -0.9592 H   0  0  0  0  0  0  0  0  0  0  0  0
   -3.9432    0.8521    0.7501 H   0  0  0  0  0  0  0  0  0  0  0  0
   -1.4250    0.1826    0.1055 C   0  0  0  0  0  0  0  0  0  0  0  0
   -2.5686   -1.2895   -0.7330 H   0  0  0  0  0  0  0  0  0  0  0  0
   -2.7546   -1.2219    1.0037 H   0  0  0  0  0  0  0  0  0  0  0  0
   -0.1659   -0.6983   -0.0165 C   0  0  0  0  0  0  0  0  0  0  0  0
   -1.3819    0.8625    0.9697 H   0  0  0  0  0  0  0  0  0  0  0  0
   -1.4304    0.8048   -0.8082 H   0  0  0  0  0  0  0  0  0  0  0  0
    0.0269   -1.3648    0.8740 H   0  0  0  0  0  0  0  0  0  0  0  0
    0.7323   -0.1027   -0.3069 H   0  0  0  0  0  0  0  0  0  0  0  0
   -0.2689   -1.3116   -0.9046 H   0  0  0  0  0  0  0  0  0  0  0  0
  1  2  1  0  0  0  0
  1  5  1  0  0  0  0
  2  6  1  0  0  0  0
  2  8  1  0  0  0  0
  3  1  1  0  0  0  0
  4  1  1  0  0  0  0
  6 10  1  0  0  0  0
  7  2  1  0  0  0  0
  9  6  1  0  0  0  0
  9 12  1  0  0  0  0
 11  6  1  0  0  0  0
 13  9  1  0  0  0  0
 14  9  1  0  0  0  0
M  END
$$$$
