butane_opt
 OpenBabel08242015423D

 14 13  0  0  0  0  0  0  0  0999 V2000
   -3.9468    0.2553    0.0556 C   0  0  0  0  0  0  0  0  0  0  0  0
   -2.7073   -0.6159    0.0059 C   0  0  0  0  0  0  0  0  0  0  0  0
   -4.8526   -0.3413    0.0925 H   0  0  0  0  0  0  0  0  0  0  0  0
   -4.0361    0.8707   -0.8331 H   0  0  0  0  0  0  0  0  0  0  0  0
   -3.9008    0.9485    0.9083 H   0  0  0  0  0  0  0  0  0  0  0  0
   -1.3973    0.2116   -0.0347 C   0  0  0  0  0  0  0  0  0  0  0  0
   -2.8302   -1.3179   -0.8569 H   0  0  0  0  0  0  0  0  0  0  0  0
   -2.6970   -1.1979    0.8511 H   0  0  0  0  0  0  0  0  0  0  0  0
   -0.1530   -0.7154    0.0747 C   0  0  0  0  0  0  0  0  0  0  0  0
   -1.4529    0.8238    0.7613 H   0  0  0  0  0  0  0  0  0  0  0  0
   -1.3482    0.8908   -0.9667 H   0  0  0  0  0  0  0  0  0  0  0  0
   -0.1387   -1.2566    0.9247 H   0  0  0  0  0  0  0  0  0  0  0  0
    0.7436   -0.1115    0.1347 H   0  0  0  0  0  0  0  0  0  0  0  0
   -0.0558   -1.4121   -0.8047 H   0  0  0  0  0  0  0  0  0  0  0  0
  1  3  1  0  0  0  0
  1  5  1  0  0  0  0
  2  1  1  0  0  0  0
  2  8  1  0  0  0  0
  4  1  1  0  0  0  0
  6  2  1  0  0  0  0
  6  9  1  0  0  0  0
  6 10  1  0  0  0  0
  7  2  1  0  0  0  0
  9 13  1  0  0  0  0
  9 12  1  0  0  0  0
 11  6  1  0  0  0  0
 14  9  1  0  0  0  0
M  END
$$$$
