butane_opt
 OpenBabel08242015423D

 14 13  0  0  0  0  0  0  0  0999 V2000
   -3.9391    0.2845    0.0815 C   0  0  0  0  0  0  0  0  0  0  0  0
   -2.6976   -0.6314   -0.0482 C   0  0  0  0  0  0  0  0  0  0  0  0
   -4.8250   -0.3046    0.2618 H   0  0  0  0  0  0  0  0  0  0  0  0
   -4.1594    1.0280   -0.8470 H   0  0  0  0  0  0  0  0  0  0  0  0
   -3.7777    0.8656    0.8725 H   0  0  0  0  0  0  0  0  0  0  0  0
   -1.3881    0.1466   -0.0338 C   0  0  0  0  0  0  0  0  0  0  0  0
   -2.7947   -1.3928   -0.9767 H   0  0  0  0  0  0  0  0  0  0  0  0
   -2.5600   -1.1419    0.7537 H   0  0  0  0  0  0  0  0  0  0  0  0
   -0.1774   -0.6716    0.1082 C   0  0  0  0  0  0  0  0  0  0  0  0
   -1.4539    0.7944    0.7760 H   0  0  0  0  0  0  0  0  0  0  0  0
   -1.2884    0.8014   -1.0099 H   0  0  0  0  0  0  0  0  0  0  0  0
   -0.2034   -1.3124    1.0176 H   0  0  0  0  0  0  0  0  0  0  0  0
    0.6867   -0.0819    0.0259 H   0  0  0  0  0  0  0  0  0  0  0  0
   -0.2238   -1.2625   -0.7443 H   0  0  0  0  0  0  0  0  0  0  0  0
  1  3  1  0  0  0  0
  1  5  1  0  0  0  0
  2  6  1  0  0  0  0
  2  1  1  0  0  0  0
  2  8  1  0  0  0  0
  4  1  1  0  0  0  0
  6  9  1  0  0  0  0
  6 10  1  0  0  0  0
  7  2  1  0  0  0  0
  9 12  1  0  0  0  0
 11  6  1  0  0  0  0
 13  9  1  0  0  0  0
 14  9  1  0  0  0  0
M  END
$$$$
