14
butane_opt
C  -3.939122   0.284522   0.081475
C  -2.697573  -0.631369  -0.048218
H  -4.825049  -0.304581   0.261753
H  -4.159365   1.027961  -0.847028
H  -3.777707   0.865552   0.872455
C  -1.388120   0.146550  -0.033754
H  -2.794667  -1.392774  -0.976690
H  -2.560039  -1.141935   0.753672
C  -0.177363  -0.671560   0.108216
H  -1.453871   0.794358   0.776021
H  -1.288388   0.801375  -1.009855
H  -0.203405  -1.312367   1.017649
H   0.686657  -0.081898   0.025909
H  -0.223757  -1.262469  -0.744305
