14
butane_opt
C  -3.925688   0.240192   0.041817
C  -2.686480  -0.585337   0.038427
H  -4.888222  -0.423068  -0.009257
H  -3.882335   0.822188  -0.848876
H  -3.965557   0.996664   0.941224
C  -1.421927   0.207577  -0.025590
H  -2.799035  -1.305972  -0.849072
H  -2.770370  -1.172820   0.917629
C  -0.163760  -0.719911   0.046263
H  -1.391262   0.812647   0.787679
H  -1.515577   0.903271  -1.009429
H  -0.185182  -1.267569   0.899358
H   0.801021  -0.089515   0.202366
H  -0.047741  -1.457512  -0.787688
