butane_opt
 OpenBabel08242015423D

 14 13  0  0  0  0  0  0  0  0999 V2000
   -3.9734    0.2824    0.0768 C   0  0  0  0  0  0  0  0  0  0  0  0
   -2.6797   -0.6586   -0.0382 C   0  0  0  0  0  0  0  0  0  0  0  0
   -4.8202   -0.2309    0.2882 H   0  0  0  0  0  0  0  0  0  0  0  0
   -4.1654    0.9607   -0.7911 H   0  0  0  0  0  0  0  0  0  0  0  0
   -3.9006    0.8646    0.8572 H   0  0  0  0  0  0  0  0  0  0  0  0
   -1.3907    0.1864   -0.0314 C   0  0  0  0  0  0  0  0  0  0  0  0
   -2.7036   -1.3837   -0.9606 H   0  0  0  0  0  0  0  0  0  0  0  0
   -2.7680   -1.1805    0.7772 H   0  0  0  0  0  0  0  0  0  0  0  0
   -0.1648   -0.6814    0.0905 C   0  0  0  0  0  0  0  0  0  0  0  0
   -1.4297    0.7712    0.7517 H   0  0  0  0  0  0  0  0  0  0  0  0
   -1.3186    0.8744   -1.0079 H   0  0  0  0  0  0  0  0  0  0  0  0
   -0.1404   -1.3241    0.9905 H   0  0  0  0  0  0  0  0  0  0  0  0
    0.7980   -0.0351    0.1469 H   0  0  0  0  0  0  0  0  0  0  0  0
   -0.0929   -1.3191   -0.7729 H   0  0  0  0  0  0  0  0  0  0  0  0
  1  3  1  0  0  0  0
  1  5  1  0  0  0  0
  2  6  1  0  0  0  0
  2  1  1  0  0  0  0
  2  8  1  0  0  0  0
  4  1  1  0  0  0  0
  6  9  1  0  0  0  0
  6 10  1  0  0  0  0
  7  2  1  0  0  0  0
  9 13  1  0  0  0  0
  9 12  1  0  0  0  0
 11  6  1  0  0  0  0
 14  9  1  0  0  0  0
M  END
$$$$
