14
butane_opt
C  -3.945157   0.264350   0.043508
C  -2.694665  -0.623983   0.028395
H  -4.886952  -0.330792  -0.033659
H  -3.993922   0.829239  -0.812886
H  -3.975890   0.982012   0.932633
C  -1.405584   0.200321  -0.020340
H  -2.760055  -1.343400  -0.879906
H  -2.713915  -1.211109   0.866885
C  -0.155698  -0.694044   0.057993
H  -1.378973   0.804182   0.789966
H  -1.412062   0.847885  -0.940264
H  -0.131144  -1.342982   0.969256
H   0.729229  -0.119330   0.035872
H  -0.085765  -1.350134  -0.793882
