14
butane_opt
C  -3.956682   0.282515  -0.025080
C  -2.717040  -0.637004   0.094002
H  -4.831810  -0.233033   0.036150
H  -4.045123   1.031912  -0.967874
H  -3.991098   0.837993   0.784501
C  -1.396126   0.151795   0.037187
H  -2.680472  -1.238919  -0.724829
H  -2.776648  -1.323129   1.053281
C  -0.153557  -0.683615   0.001711
H  -1.267681   0.849674   0.923488
H  -1.368066   0.855799  -0.870508
H  -0.130311  -1.006565   0.711117
H   0.829502  -0.034867   0.193732
H  -0.095891  -1.574285  -1.032836
