butane_opt
 OpenBabel08242015423D

 14 13  0  0  0  0  0  0  0  0999 V2000
   -3.9293    0.2786   -0.0074 C   0  0  0  0  0  0  0  0  0  0  0  0
   -2.6791   -0.6348    0.0890 C   0  0  0  0  0  0  0  0  0  0  0  0
   -4.8350   -0.3068   -0.1567 H   0  0  0  0  0  0  0  0  0  0  0  0
   -3.9137    0.8092   -0.8156 H   0  0  0  0  0  0  0  0  0  0  0  0
   -4.1772    1.0803    0.9381 H   0  0  0  0  0  0  0  0  0  0  0  0
   -1.3975    0.1627    0.0249 C   0  0  0  0  0  0  0  0  0  0  0  0
   -2.6796   -1.3142   -0.8124 H   0  0  0  0  0  0  0  0  0  0  0  0
   -2.8399   -1.2605    1.0037 H   0  0  0  0  0  0  0  0  0  0  0  0
   -0.1777   -0.6817    0.0097 C   0  0  0  0  0  0  0  0  0  0  0  0
   -1.3541    0.8124    0.8615 H   0  0  0  0  0  0  0  0  0  0  0  0
   -1.4137    0.8674   -0.9336 H   0  0  0  0  0  0  0  0  0  0  0  0
   -0.1744   -1.2436    0.8765 H   0  0  0  0  0  0  0  0  0  0  0  0
    0.7719   -0.0827   -0.0324 H   0  0  0  0  0  0  0  0  0  0  0  0
   -0.1971   -1.3363   -0.8620 H   0  0  0  0  0  0  0  0  0  0  0  0
  1  2  1  0  0  0  0
  1  5  1  0  0  0  0
  2  8  1  0  0  0  0
  3  1  1  0  0  0  0
  4  1  1  0  0  0  0
  6  2  1  0  0  0  0
  6 10  1  0  0  0  0
  7  2  1  0  0  0  0
  9  6  1  0  0  0  0
  9 12  1  0  0  0  0
 11  6  1  0  0  0  0
 13  9  1  0  0  0  0
 14  9  1  0  0  0  0
M  END
$$$$
