14
butane_opt
C  -3.920345   0.242281  -0.012616
C  -2.701111  -0.591963   0.053824
H  -4.837926  -0.368541   0.168659
H  -4.002337   1.021214  -1.041076
H  -3.852103   0.704729   0.693719
C  -1.420502   0.207296   0.061380
H  -2.692111  -1.241006  -0.786239
H  -2.717963  -1.188483   0.932609
C  -0.164836  -0.716388   0.007838
H  -1.311348   0.951844   1.012444
H  -1.412667   0.809879  -0.787848
H  -0.055836  -1.285141   0.850965
H   0.638204  -0.166309  -0.078011
H  -0.273976  -1.422138  -0.875300
