14
butane_opt
C  -3.929257   0.278607  -0.007444
C  -2.679124  -0.634804   0.088986
H  -4.834979  -0.306756  -0.156665
H  -3.913653   0.809184  -0.815620
H  -4.177242   1.080285   0.938134
C  -1.397489   0.162723   0.024874
H  -2.679635  -1.314187  -0.812372
H  -2.839908  -1.260484   1.003706
C  -0.177738  -0.681671   0.009715
H  -1.354066   0.812358   0.861492
H  -1.413663   0.867423  -0.933591
H  -0.174428  -1.243641   0.876453
H   0.771948  -0.082700  -0.032417
H  -0.197101  -1.336275  -0.862035
