butane_opt
 OpenBabel08242015423D

 14 13  0  0  0  0  0  0  0  0999 V2000
   -3.9203    0.2423   -0.0126 C   0  0  0  0  0  0  0  0  0  0  0  0
   -2.7011   -0.5920    0.0538 C   0  0  0  0  0  0  0  0  0  0  0  0
   -4.8379   -0.3685    0.1687 H   0  0  0  0  0  0  0  0  0  0  0  0
   -4.0023    1.0212   -1.0411 H   0  0  0  0  0  0  0  0  0  0  0  0
   -3.8521    0.7047    0.6937 H   0  0  0  0  0  0  0  0  0  0  0  0
   -1.4205    0.2073    0.0614 C   0  0  0  0  0  0  0  0  0  0  0  0
   -2.6921   -1.2410   -0.7862 H   0  0  0  0  0  0  0  0  0  0  0  0
   -2.7180   -1.1885    0.9326 H   0  0  0  0  0  0  0  0  0  0  0  0
   -0.1648   -0.7164    0.0078 C   0  0  0  0  0  0  0  0  0  0  0  0
   -1.3113    0.9518    1.0124 H   0  0  0  0  0  0  0  0  0  0  0  0
   -1.4127    0.8099   -0.7878 H   0  0  0  0  0  0  0  0  0  0  0  0
   -0.0558   -1.2851    0.8510 H   0  0  0  0  0  0  0  0  0  0  0  0
    0.6382   -0.1663   -0.0780 H   0  0  0  0  0  0  0  0  0  0  0  0
   -0.2740   -1.4221   -0.8753 H   0  0  0  0  0  0  0  0  0  0  0  0
  1  2  1  0  0  0  0
  1  3  1  0  0  0  0
  1  5  1  0  0  0  0
  2  6  1  0  0  0  0
  2  8  1  0  0  0  0
  4  1  1  0  0  0  0
  6 10  1  0  0  0  0
  7  2  1  0  0  0  0
  9  6  1  0  0  0  0
  9 12  1  0  0  0  0
 11  6  1  0  0  0  0
 13  9  1  0  0  0  0
 14  9  1  0  0  0  0
M  END
$$$$
