14
butane_opt
C  -3.943182   0.289509  -0.034513
C  -2.702134  -0.633224   0.064914
H  -4.754033  -0.228116   0.259194
H  -4.059195   1.060299  -1.042810
H  -3.886380   0.741639   0.727798
C  -1.387189   0.152898   0.060332
H  -2.764800  -1.237751  -0.743424
H  -2.709894  -1.410526   1.015374
C  -0.172342  -0.669468  -0.002583
H  -1.417801   0.938178   1.002775
H  -1.402125   0.711645  -0.767981
H  -0.171027  -1.123450   0.808740
H   0.756641  -0.039218   0.034059
H  -0.184905  -1.532468  -0.962179
