butane_opt
 OpenBabel08242015423D

 14 13  0  0  0  0  0  0  0  0999 V2000
   -3.9619    0.2727   -0.0084 C   0  0  0  0  0  0  0  0  0  0  0  0
   -2.7005   -0.6397    0.0714 C   0  0  0  0  0  0  0  0  0  0  0  0
   -4.8544   -0.2869   -0.0575 H   0  0  0  0  0  0  0  0  0  0  0  0
   -3.9606    0.8809   -0.9091 H   0  0  0  0  0  0  0  0  0  0  0  0
   -3.9927    0.9558    0.8552 H   0  0  0  0  0  0  0  0  0  0  0  0
   -1.3993    0.1890    0.0316 C   0  0  0  0  0  0  0  0  0  0  0  0
   -2.6379   -1.2824   -0.7670 H   0  0  0  0  0  0  0  0  0  0  0  0
   -2.7268   -1.3029    1.0089 H   0  0  0  0  0  0  0  0  0  0  0  0
   -0.1580   -0.6839    0.0092 C   0  0  0  0  0  0  0  0  0  0  0  0
   -1.3565    0.8994    0.9247 H   0  0  0  0  0  0  0  0  0  0  0  0
   -1.3757    0.7979   -0.8328 H   0  0  0  0  0  0  0  0  0  0  0  0
   -0.0649   -1.2974    0.9046 H   0  0  0  0  0  0  0  0  0  0  0  0
    0.7468   -0.0847   -0.0529 H   0  0  0  0  0  0  0  0  0  0  0  0
   -0.1713   -1.4088   -0.8860 H   0  0  0  0  0  0  0  0  0  0  0  0
  1  2  1  0  0  0  0
  1  5  1  0  0  0  0
  2  8  1  0  0  0  0
  3  1  1  0  0  0  0
  4  1  1  0  0  0  0
  6  2  1  0  0  0  0
  6 10  1  0  0  0  0
  7  2  1  0  0  0  0
  9  6  1  0  0  0  0
  9 12  1  0  0  0  0
 11  6  1  0  0  0  0
 13  9  1  0  0  0  0
 14  9  1  0  0  0  0
M  END
$$$$
