14
butane_opt
C  -3.925676   0.242549  -0.016665
C  -2.707432  -0.594065   0.081169
H  -4.816358  -0.307535   0.098582
H  -3.885844   0.990384  -0.960425
H  -3.927319   0.808537   0.759663
C  -1.426619   0.175204   0.039793
H  -2.673395  -1.224460  -0.754489
H  -2.692051  -1.249601   1.030235
C  -0.162469  -0.701796  -0.007196
H  -1.349596   0.916614   0.954369
H  -1.515099   0.862545  -0.868172
H  -0.256602  -1.140648   0.762141
H   0.764608  -0.083695   0.173588
H  -0.009644  -1.516248  -0.949942
