butane_opt
 OpenBabel08242015423D

 14 13  0  0  0  0  0  0  0  0999 V2000
   -3.9191    0.2453   -0.0246 C   0  0  0  0  0  0  0  0  0  0  0  0
   -2.7040   -0.5977    0.0486 C   0  0  0  0  0  0  0  0  0  0  0  0
   -4.7957   -0.3033    0.1180 H   0  0  0  0  0  0  0  0  0  0  0  0
   -3.9800    0.9924   -1.0173 H   0  0  0  0  0  0  0  0  0  0  0  0
   -3.9504    0.8518    0.7792 H   0  0  0  0  0  0  0  0  0  0  0  0
   -1.4105    0.2000    0.0775 C   0  0  0  0  0  0  0  0  0  0  0  0
   -2.7251   -1.2046   -0.7298 H   0  0  0  0  0  0  0  0  0  0  0  0
   -2.7406   -1.3361    1.0171 H   0  0  0  0  0  0  0  0  0  0  0  0
   -0.1679   -0.7078   -0.0043 C   0  0  0  0  0  0  0  0  0  0  0  0
   -1.3432    0.9415    0.9500 H   0  0  0  0  0  0  0  0  0  0  0  0
   -1.4208    0.7104   -0.7249 H   0  0  0  0  0  0  0  0  0  0  0  0
   -0.0561   -1.3357    0.8968 H   0  0  0  0  0  0  0  0  0  0  0  0
    0.7300   -0.1345   -0.1076 H   0  0  0  0  0  0  0  0  0  0  0  0
   -0.3079   -1.3278   -0.9124 H   0  0  0  0  0  0  0  0  0  0  0  0
  1  2  1  0  0  0  0
  1  3  1  0  0  0  0
  1  5  1  0  0  0  0
  2  6  1  0  0  0  0
  2  8  1  0  0  0  0
  4  1  1  0  0  0  0
  6 10  1  0  0  0  0
  7  2  1  0  0  0  0
  9  6  1  0  0  0  0
  9 12  1  0  0  0  0
 11  6  1  0  0  0  0
 13  9  1  0  0  0  0
 14  9  1  0  0  0  0
M  END
$$$$
