butane_opt
 OpenBabel08242015423D

 14 13  0  0  0  0  0  0  0  0999 V2000
   -3.9420    0.2604    0.0545 C   0  0  0  0  0  0  0  0  0  0  0  0
   -2.7010   -0.6191   -0.0290 C   0  0  0  0  0  0  0  0  0  0  0  0
   -4.8556   -0.3872    0.0635 H   0  0  0  0  0  0  0  0  0  0  0  0
   -3.9712    0.8518   -0.8595 H   0  0  0  0  0  0  0  0  0  0  0  0
   -3.8531    0.9828    0.9657 H   0  0  0  0  0  0  0  0  0  0  0  0
   -1.3950    0.2082   -0.0040 C   0  0  0  0  0  0  0  0  0  0  0  0
   -2.7509   -1.2744   -0.8849 H   0  0  0  0  0  0  0  0  0  0  0  0
   -2.6801   -1.2743    0.8983 H   0  0  0  0  0  0  0  0  0  0  0  0
   -0.1718   -0.6995    0.0749 C   0  0  0  0  0  0  0  0  0  0  0  0
   -1.4569    0.9008    0.8492 H   0  0  0  0  0  0  0  0  0  0  0  0
   -1.3720    0.8339   -0.8773 H   0  0  0  0  0  0  0  0  0  0  0  0
   -0.0609   -1.4930    1.0380 H   0  0  0  0  0  0  0  0  0  0  0  0
    0.6786   -0.1575   -0.1805 H   0  0  0  0  0  0  0  0  0  0  0  0
   -0.1785   -1.2544   -0.7207 H   0  0  0  0  0  0  0  0  0  0  0  0
  1  3  1  0  0  0  0
  1  5  1  0  0  0  0
  2  6  1  0  0  0  0
  2  1  1  0  0  0  0
  2  8  1  0  0  0  0
  4  1  1  0  0  0  0
  6  9  1  0  0  0  0
  6 10  1  0  0  0  0
  7  2  1  0  0  0  0
  9 12  1  0  0  0  0
 11  6  1  0  0  0  0
 13  9  1  0  0  0  0
 14  9  1  0  0  0  0
M  END
$$$$
