14
butane_opt
C  -3.939248   0.243569  -0.018904
C  -2.702372  -0.586915   0.074504
H  -4.877621  -0.364078   0.068181
H  -3.990435   1.036677  -1.036297
H  -3.972895   0.756435   0.682129
C  -1.418255   0.192521   0.080681
H  -2.728503  -1.224034  -0.794783
H  -2.775359  -1.266170   1.034092
C  -0.144622  -0.703337  -0.004413
H  -1.359555   0.887596   0.918920
H  -1.437790   0.827163  -0.837590
H  -0.015692  -1.230620   0.800456
H   0.796426  -0.077538  -0.018794
H  -0.202028  -1.573068  -0.989500
