butane_opt
 OpenBabel08242015423D

 14 13  0  0  0  0  0  0  0  0999 V2000
   -3.9392    0.2436   -0.0189 C   0  0  0  0  0  0  0  0  0  0  0  0
   -2.7024   -0.5869    0.0745 C   0  0  0  0  0  0  0  0  0  0  0  0
   -4.8776   -0.3641    0.0682 H   0  0  0  0  0  0  0  0  0  0  0  0
   -3.9904    1.0367   -1.0363 H   0  0  0  0  0  0  0  0  0  0  0  0
   -3.9729    0.7564    0.6821 H   0  0  0  0  0  0  0  0  0  0  0  0
   -1.4183    0.1925    0.0807 C   0  0  0  0  0  0  0  0  0  0  0  0
   -2.7285   -1.2240   -0.7948 H   0  0  0  0  0  0  0  0  0  0  0  0
   -2.7754   -1.2662    1.0341 H   0  0  0  0  0  0  0  0  0  0  0  0
   -0.1446   -0.7033   -0.0044 C   0  0  0  0  0  0  0  0  0  0  0  0
   -1.3596    0.8876    0.9189 H   0  0  0  0  0  0  0  0  0  0  0  0
   -1.4378    0.8272   -0.8376 H   0  0  0  0  0  0  0  0  0  0  0  0
   -0.0157   -1.2306    0.8005 H   0  0  0  0  0  0  0  0  0  0  0  0
    0.7964   -0.0775   -0.0188 H   0  0  0  0  0  0  0  0  0  0  0  0
   -0.2020   -1.5731   -0.9895 H   0  0  0  0  0  0  0  0  0  0  0  0
  1  3  1  0  0  0  0
  1  2  1  0  0  0  0
  1  5  1  0  0  0  0
  2  6  1  0  0  0  0
  2  8  1  0  0  0  0
  4  1  1  0  0  0  0
  6 10  1  0  0  0  0
  7  2  1  0  0  0  0
  9  6  1  0  0  0  0
  9 12  1  0  0  0  0
 11  6  1  0  0  0  0
 13  9  1  0  0  0  0
 14  9  1  0  0  0  0
M  END
$$$$
