14
butane_opt
C  -3.965777   0.276496  -0.001068
C  -2.704912  -0.644335   0.076535
H  -4.860743  -0.277354  -0.228309
H  -3.923502   0.768540  -0.840824
H  -4.052215   1.075998   0.942672
C  -1.394350   0.187790   0.022176
H  -2.645149  -1.304530  -0.746529
H  -2.697416  -1.319573   0.988233
C  -0.155122  -0.687729  -0.003834
H  -1.341687   0.865140   0.922291
H  -1.422618   0.808950  -0.828470
H  -0.106695  -1.340139   0.930773
H   0.744080  -0.102211  -0.066184
H  -0.083277  -1.226366  -0.747214
