14
butane_opt
C  -3.952923   0.265276  -0.027979
C  -2.712395  -0.607913   0.115682
H  -4.816499  -0.294150  -0.188287
H  -3.890210   0.862173  -0.957181
H  -4.125378   0.995539   0.879370
C  -1.384876   0.174598   0.051883
H  -2.744669  -1.278592  -0.746606
H  -2.691842  -1.295646   1.036567
C  -0.148554  -0.690625  -0.019672
H  -1.314336   0.836193   0.860426
H  -1.448234   0.768102  -0.822277
H  -0.149610  -1.280331   0.845962
H   0.777239  -0.060736   0.040451
H  -0.226828  -1.415059  -0.945462
