butane_opt
 OpenBabel08242015423D

 14 13  0  0  0  0  0  0  0  0999 V2000
   -3.9588    0.2839    0.0460 C   0  0  0  0  0  0  0  0  0  0  0  0
   -2.6991   -0.6319   -0.0104 C   0  0  0  0  0  0  0  0  0  0  0  0
   -4.8902   -0.3136    0.2643 H   0  0  0  0  0  0  0  0  0  0  0  0
   -4.1523    1.0835   -0.9491 H   0  0  0  0  0  0  0  0  0  0  0  0
   -3.9667    0.7861    0.8319 H   0  0  0  0  0  0  0  0  0  0  0  0
   -1.3894    0.1592    0.0092 C   0  0  0  0  0  0  0  0  0  0  0  0
   -2.8027   -1.3941   -0.9442 H   0  0  0  0  0  0  0  0  0  0  0  0
   -2.6191   -1.2572    0.8327 H   0  0  0  0  0  0  0  0  0  0  0  0
   -0.1421   -0.6718    0.0544 C   0  0  0  0  0  0  0  0  0  0  0  0
   -1.4697    0.8431    0.8313 H   0  0  0  0  0  0  0  0  0  0  0  0
   -1.3675    0.8182   -0.8835 H   0  0  0  0  0  0  0  0  0  0  0  0
   -0.1342   -1.3081    0.9535 H   0  0  0  0  0  0  0  0  0  0  0  0
    0.8214   -0.0625    0.0750 H   0  0  0  0  0  0  0  0  0  0  0  0
   -0.1708   -1.3238   -0.7808 H   0  0  0  0  0  0  0  0  0  0  0  0
  1  3  1  0  0  0  0
  1  5  1  0  0  0  0
  2  6  1  0  0  0  0
  2  1  1  0  0  0  0
  2  8  1  0  0  0  0
  4  1  1  0  0  0  0
  6  9  1  0  0  0  0
  6 10  1  0  0  0  0
  7  2  1  0  0  0  0
  9 13  1  0  0  0  0
  9 12  1  0  0  0  0
 11  6  1  0  0  0  0
 14  9  1  0  0  0  0
M  END
$$$$
