butane_opt
 OpenBabel08242015423D

 14 13  0  0  0  0  0  0  0  0999 V2000
   -3.9529    0.2653   -0.0280 C   0  0  0  0  0  0  0  0  0  0  0  0
   -2.7124   -0.6079    0.1157 C   0  0  0  0  0  0  0  0  0  0  0  0
   -4.8165   -0.2942   -0.1883 H   0  0  0  0  0  0  0  0  0  0  0  0
   -3.8902    0.8622   -0.9572 H   0  0  0  0  0  0  0  0  0  0  0  0
   -4.1254    0.9955    0.8794 H   0  0  0  0  0  0  0  0  0  0  0  0
   -1.3849    0.1746    0.0519 C   0  0  0  0  0  0  0  0  0  0  0  0
   -2.7447   -1.2786   -0.7466 H   0  0  0  0  0  0  0  0  0  0  0  0
   -2.6918   -1.2956    1.0366 H   0  0  0  0  0  0  0  0  0  0  0  0
   -0.1486   -0.6906   -0.0197 C   0  0  0  0  0  0  0  0  0  0  0  0
   -1.3143    0.8362    0.8604 H   0  0  0  0  0  0  0  0  0  0  0  0
   -1.4482    0.7681   -0.8223 H   0  0  0  0  0  0  0  0  0  0  0  0
   -0.1496   -1.2803    0.8460 H   0  0  0  0  0  0  0  0  0  0  0  0
    0.7772   -0.0607    0.0405 H   0  0  0  0  0  0  0  0  0  0  0  0
   -0.2268   -1.4151   -0.9455 H   0  0  0  0  0  0  0  0  0  0  0  0
  1  2  1  0  0  0  0
  1  5  1  0  0  0  0
  2  8  1  0  0  0  0
  3  1  1  0  0  0  0
  4  1  1  0  0  0  0
  6  2  1  0  0  0  0
  6 10  1  0  0  0  0
  7  2  1  0  0  0  0
  9 13  1  0  0  0  0
  9  6  1  0  0  0  0
  9 12  1  0  0  0  0
 11  6  1  0  0  0  0
 14  9  1  0  0  0  0
M  END
$$$$
