14
butane_opt
C  -3.930720   0.260305  -0.023859
C  -2.725743  -0.615594   0.046226
H  -4.870637  -0.362865   0.148715
H  -4.008664   0.921768  -0.941052
H  -3.903883   0.870832   0.811185
C  -1.401533   0.207919   0.062754
H  -2.667887  -1.253149  -0.749234
H  -2.837443  -1.276709   0.960773
C  -0.140497  -0.713253   0.002994
H  -1.366796   0.980235   0.960681
H  -1.511680   0.766719  -0.769596
H  -0.017803  -1.331464   0.927886
H   0.748752  -0.182310  -0.157174
H  -0.199313  -1.277530  -0.798843
