14
butane_opt
C  -3.904056   0.256672   0.015016
C  -2.707921  -0.592561   0.065403
H  -4.842030  -0.386847   0.082719
H  -3.946849   0.874066  -0.932427
H  -3.902800   0.831520   0.841423
C  -1.424144   0.210114  -0.001176
H  -2.683795  -1.275766  -0.824274
H  -2.815234  -1.230823   0.942780
C  -0.167026  -0.718988   0.030751
H  -1.404183   0.801150   0.771828
H  -1.399672   0.849709  -0.882757
H  -0.153406  -1.131100   0.800964
H   0.727898  -0.135643   0.232524
H  -0.150591  -1.536419  -0.919349
