butane_opt
 OpenBabel08242015423D

 14 13  0  0  0  0  0  0  0  0999 V2000
   -3.9041    0.2567    0.0150 C   0  0  0  0  0  0  0  0  0  0  0  0
   -2.7079   -0.5926    0.0654 C   0  0  0  0  0  0  0  0  0  0  0  0
   -4.8420   -0.3868    0.0827 H   0  0  0  0  0  0  0  0  0  0  0  0
   -3.9468    0.8741   -0.9324 H   0  0  0  0  0  0  0  0  0  0  0  0
   -3.9028    0.8315    0.8414 H   0  0  0  0  0  0  0  0  0  0  0  0
   -1.4241    0.2101   -0.0012 C   0  0  0  0  0  0  0  0  0  0  0  0
   -2.6838   -1.2758   -0.8243 H   0  0  0  0  0  0  0  0  0  0  0  0
   -2.8152   -1.2308    0.9428 H   0  0  0  0  0  0  0  0  0  0  0  0
   -0.1670   -0.7190    0.0308 C   0  0  0  0  0  0  0  0  0  0  0  0
   -1.4042    0.8012    0.7718 H   0  0  0  0  0  0  0  0  0  0  0  0
   -1.3997    0.8497   -0.8828 H   0  0  0  0  0  0  0  0  0  0  0  0
   -0.1534   -1.1311    0.8010 H   0  0  0  0  0  0  0  0  0  0  0  0
    0.7279   -0.1356    0.2325 H   0  0  0  0  0  0  0  0  0  0  0  0
   -0.1506   -1.5364   -0.9193 H   0  0  0  0  0  0  0  0  0  0  0  0
  1  2  1  0  0  0  0
  1  3  1  0  0  0  0
  1  5  1  0  0  0  0
  2  8  1  0  0  0  0
  4  1  1  0  0  0  0
  6  9  1  0  0  0  0
  6  2  1  0  0  0  0
  6 10  1  0  0  0  0
  7  2  1  0  0  0  0
  9 13  1  0  0  0  0
  9 12  1  0  0  0  0
 11  6  1  0  0  0  0
 14  9  1  0  0  0  0
M  END
$$$$
