14
butane_opt
C  -3.959732   0.244090  -0.035411
C  -2.710642  -0.594902   0.124818
H  -4.950172  -0.394613  -0.190284
H  -3.818756   0.782432  -0.866063
H  -4.115821   0.932372   0.825592
C  -1.412154   0.219156   0.048959
H  -2.648151  -1.273346  -0.668612
H  -2.763699  -1.165360   0.984169
C  -0.130454  -0.721474  -0.017916
H  -1.293570   0.913766   0.904642
H  -1.425254   0.832730  -0.833822
H  -0.081913  -1.285409   0.835640
H   0.740228  -0.167304  -0.090207
H  -0.090701  -1.436692  -0.907870
