14
butane_opt
C  -3.959614   0.287942   0.041450
C  -2.699356  -0.651727   0.027083
H  -4.844659  -0.301123   0.001322
H  -4.050873   0.867436  -0.807061
H  -3.903639   1.028098   0.972170
C  -1.383084   0.176875  -0.039672
H  -2.765459  -1.349500  -0.844342
H  -2.648706  -1.298499   0.928941
C  -0.167554  -0.671967   0.056046
H  -1.398945   0.882080   0.772570
H  -1.371278   0.794880  -0.936089
H  -0.243568  -1.306440   0.960534
H   0.724180  -0.076173   0.174437
H  -0.018095  -1.401911  -0.808060
