butane_opt
 OpenBabel08242015423D

 14 13  0  0  0  0  0  0  0  0999 V2000
   -3.9579    0.2796    0.0534 C   0  0  0  0  0  0  0  0  0  0  0  0
   -2.7175   -0.6214    0.0006 C   0  0  0  0  0  0  0  0  0  0  0  0
   -4.8567   -0.3177    0.0483 H   0  0  0  0  0  0  0  0  0  0  0  0
   -4.0806    0.8187   -0.7836 H   0  0  0  0  0  0  0  0  0  0  0  0
   -3.9689    0.9744    0.9879 H   0  0  0  0  0  0  0  0  0  0  0  0
   -1.3980    0.1724   -0.0380 C   0  0  0  0  0  0  0  0  0  0  0  0
   -2.7577   -1.2508   -0.8278 H   0  0  0  0  0  0  0  0  0  0  0  0
   -2.7298   -1.2374    0.9145 H   0  0  0  0  0  0  0  0  0  0  0  0
   -0.1371   -0.6875    0.0677 C   0  0  0  0  0  0  0  0  0  0  0  0
   -1.3228    0.7703    0.7363 H   0  0  0  0  0  0  0  0  0  0  0  0
   -1.3338    0.8209   -0.9667 H   0  0  0  0  0  0  0  0  0  0  0  0
   -0.2507   -1.2729    0.9737 H   0  0  0  0  0  0  0  0  0  0  0  0
    0.8077   -0.0514    0.1700 H   0  0  0  0  0  0  0  0  0  0  0  0
   -0.0078   -1.4440   -0.8191 H   0  0  0  0  0  0  0  0  0  0  0  0
  1  5  1  0  0  0  0
  2  1  1  0  0  0  0
  2  8  1  0  0  0  0
  3  1  1  0  0  0  0
  4  1  1  0  0  0  0
  6  2  1  0  0  0  0
  6  9  1  0  0  0  0
  6 10  1  0  0  0  0
  7  2  1  0  0  0  0
  9 13  1  0  0  0  0
  9 12  1  0  0  0  0
 11  6  1  0  0  0  0
 14  9  1  0  0  0  0
M  END
$$$$
