butane_opt
 OpenBabel08242015423D

 14 13  0  0  0  0  0  0  0  0999 V2000
   -3.9613    0.2892   -0.0421 C   0  0  0  0  0  0  0  0  0  0  0  0
   -2.6929   -0.6327    0.0695 C   0  0  0  0  0  0  0  0  0  0  0  0
   -4.8732   -0.3125    0.0310 H   0  0  0  0  0  0  0  0  0  0  0  0
   -4.0062    0.9739   -1.0105 H   0  0  0  0  0  0  0  0  0  0  0  0
   -4.0133    0.8905    0.8114 H   0  0  0  0  0  0  0  0  0  0  0  0
   -1.3880    0.1691    0.0999 C   0  0  0  0  0  0  0  0  0  0  0  0
   -2.6693   -1.2643   -0.7076 H   0  0  0  0  0  0  0  0  0  0  0  0
   -2.8088   -1.3339    0.9928 H   0  0  0  0  0  0  0  0  0  0  0  0
   -0.1631   -0.6868   -0.0238 C   0  0  0  0  0  0  0  0  0  0  0  0
   -1.2932    0.8901    0.9744 H   0  0  0  0  0  0  0  0  0  0  0  0
   -1.4396    0.6677   -0.7086 H   0  0  0  0  0  0  0  0  0  0  0  0
   -0.0494   -1.3398    0.9220 H   0  0  0  0  0  0  0  0  0  0  0  0
    0.8356   -0.0012   -0.2743 H   0  0  0  0  0  0  0  0  0  0  0  0
   -0.2564   -1.2789   -0.8336 H   0  0  0  0  0  0  0  0  0  0  0  0
  1  3  1  0  0  0  0
  1  2  1  0  0  0  0
  1  5  1  0  0  0  0
  2  6  1  0  0  0  0
  2  8  1  0  0  0  0
  4  1  1  0  0  0  0
  6 10  1  0  0  0  0
  7  2  1  0  0  0  0
  9  6  1  0  0  0  0
  9 12  1  0  0  0  0
 11  6  1  0  0  0  0
 13  9  1  0  0  0  0
 14  9  1  0  0  0  0
M  END
$$$$
