14
butane_opt
C  -3.957893   0.279628   0.053418
C  -2.717462  -0.621366   0.000599
H  -4.856742  -0.317705   0.048312
H  -4.080563   0.818662  -0.783562
H  -3.968947   0.974403   0.987877
C  -1.397985   0.172415  -0.037964
H  -2.757707  -1.250753  -0.827752
H  -2.729799  -1.237435   0.914535
C  -0.137084  -0.687471   0.067657
H  -1.322781   0.770262   0.736309
H  -1.333802   0.820888  -0.966668
H  -0.250710  -1.272946   0.973745
H   0.807720  -0.051365   0.170029
H  -0.007828  -1.443981  -0.819131
