14
butane_opt
C  -3.948110   0.270866  -0.013978
C  -2.689225  -0.632425   0.067519
H  -4.894698  -0.322126  -0.003667
H  -3.979547   1.015757  -0.978039
H  -4.055332   0.864684   0.758475
C  -1.399340   0.174604   0.076432
H  -2.761977  -1.304632  -0.805727
H  -2.668509  -1.217187   0.935236
C  -0.170248  -0.683910  -0.015190
H  -1.280407   0.940775   0.998689
H  -1.356260   0.789292  -0.848639
H  -0.041956  -1.385947   0.981219
H   0.738318  -0.113896  -0.134461
H  -0.235272  -1.298876  -0.848754
