14
butane_opt
C  -3.920148   0.246687   0.054006
C  -2.696163  -0.592768  -0.007028
H  -4.857445  -0.411394   0.014291
H  -4.000287   0.782690  -0.817754
H  -3.933569   0.937687   0.907209
C  -1.421075   0.197288  -0.017031
H  -2.705593  -1.330281  -0.869958
H  -2.584747  -1.149213   0.839014
C  -0.178642  -0.710264   0.058346
H  -1.442408   1.018424   0.899466
H  -1.336723   0.802109  -0.866165
H  -0.083889  -1.538516   1.118558
H   0.700974  -0.161372  -0.180457
H  -0.165332  -1.130972  -0.649478
