14
butane_opt
C  -3.950739   0.286939   0.056734
C  -2.688094  -0.634441  -0.010469
H  -4.901345  -0.290301   0.052071
H  -3.872316   0.831350  -0.803840
H  -3.921276   0.971970   0.959043
C  -1.397393   0.149191  -0.013403
H  -2.720781  -1.422881  -0.949237
H  -2.585774  -1.102781   0.765993
C  -0.178622  -0.673238   0.072630
H  -1.474048   0.825031   0.843617
H  -1.367733   0.832039  -0.908182
H  -0.109426  -1.502638   1.098805
H   0.746351  -0.056089  -0.215257
H  -0.256915  -1.092993  -0.645145
