14
butane_opt
C  -3.933708   0.283770  -0.004189
C  -2.690040  -0.623114   0.046580
H  -4.822306  -0.314649   0.225442
H  -3.957729   1.103634  -1.005772
H  -3.946202   0.749609   0.719148
C  -1.407699   0.144117   0.053034
H  -2.714657  -1.242599  -0.776282
H  -2.741103  -1.239496   0.975369
C  -0.181302  -0.677731   0.012073
H  -1.386130   0.829203   0.886997
H  -1.401034   0.735037  -0.834430
H  -0.146904  -1.140746   0.804503
H   0.795233   0.027304   0.083435
H  -0.172454  -1.491014  -0.959763
