butane_opt
 OpenBabel08242015423D

 14 13  0  0  0  0  0  0  0  0999 V2000
   -3.9337    0.2838   -0.0042 C   0  0  0  0  0  0  0  0  0  0  0  0
   -2.6900   -0.6231    0.0466 C   0  0  0  0  0  0  0  0  0  0  0  0
   -4.8223   -0.3146    0.2254 H   0  0  0  0  0  0  0  0  0  0  0  0
   -3.9577    1.1036   -1.0058 H   0  0  0  0  0  0  0  0  0  0  0  0
   -3.9462    0.7496    0.7191 H   0  0  0  0  0  0  0  0  0  0  0  0
   -1.4077    0.1441    0.0530 C   0  0  0  0  0  0  0  0  0  0  0  0
   -2.7147   -1.2426   -0.7763 H   0  0  0  0  0  0  0  0  0  0  0  0
   -2.7411   -1.2395    0.9754 H   0  0  0  0  0  0  0  0  0  0  0  0
   -0.1813   -0.6777    0.0121 C   0  0  0  0  0  0  0  0  0  0  0  0
   -1.3861    0.8292    0.8870 H   0  0  0  0  0  0  0  0  0  0  0  0
   -1.4010    0.7350   -0.8344 H   0  0  0  0  0  0  0  0  0  0  0  0
   -0.1469   -1.1407    0.8045 H   0  0  0  0  0  0  0  0  0  0  0  0
    0.7952    0.0273    0.0834 H   0  0  0  0  0  0  0  0  0  0  0  0
   -0.1725   -1.4910   -0.9598 H   0  0  0  0  0  0  0  0  0  0  0  0
  1  2  1  0  0  0  0
  1  3  1  0  0  0  0
  1  5  1  0  0  0  0
  2  6  1  0  0  0  0
  2  8  1  0  0  0  0
  4  1  1  0  0  0  0
  6 10  1  0  0  0  0
  7  2  1  0  0  0  0
  9  6  1  0  0  0  0
  9 13  1  0  0  0  0
  9 12  1  0  0  0  0
 11  6  1  0  0  0  0
 14  9  1  0  0  0  0
M  END
$$$$
