14
butane_opt
C  -3.950120   0.248994  -0.023044
C  -2.712901  -0.602819   0.103104
H  -4.884184  -0.365988  -0.153546
H  -3.853594   0.741265  -0.878223
H  -4.036431   1.049127   0.908819
C  -1.400885   0.216639   0.042691
H  -2.736835  -1.292489  -0.791300
H  -2.730593  -1.220817   0.994013
C  -0.159365  -0.719066  -0.007343
H  -1.257330   0.871242   0.882903
H  -1.409476   0.889328  -0.916319
H  -0.015306  -1.362360   0.852634
H   0.719538  -0.160666   0.000514
H  -0.127511  -1.355237  -0.816707
