14
butane_opt
C  -3.947246   0.291654   0.056286
C  -2.679280  -0.622581  -0.004670
H  -4.891738  -0.342285  -0.036776
H  -4.005476   0.827559  -0.767969
H  -4.001723   0.976140   0.912798
C  -1.407850   0.149244  -0.008728
H  -2.754467  -1.469092  -0.981095
H  -2.651258  -1.202950   0.810563
C  -0.167754  -0.664153   0.067777
H  -1.360985   0.820007   0.846674
H  -1.389830   0.785402  -0.908809
H  -0.048853  -1.505138   1.114328
H   0.775380  -0.082297  -0.236972
H  -0.277999  -1.111212  -0.612015
