butane_opt
 OpenBabel08242015423D

 14 13  0  0  0  0  0  0  0  0999 V2000
   -3.9601    0.2854    0.0503 C   0  0  0  0  0  0  0  0  0  0  0  0
   -2.7042   -0.6287    0.0047 C   0  0  0  0  0  0  0  0  0  0  0  0
   -4.8554   -0.3275   -0.0697 H   0  0  0  0  0  0  0  0  0  0  0  0
   -4.0041    0.8213   -0.8019 H   0  0  0  0  0  0  0  0  0  0  0  0
   -4.1009    1.0479    0.9649 H   0  0  0  0  0  0  0  0  0  0  0  0
   -1.3759    0.1671    0.0013 C   0  0  0  0  0  0  0  0  0  0  0  0
   -2.6352   -1.3788   -0.8793 H   0  0  0  0  0  0  0  0  0  0  0  0
   -2.6951   -1.2053    0.8452 H   0  0  0  0  0  0  0  0  0  0  0  0
   -0.1702   -0.6796    0.0517 C   0  0  0  0  0  0  0  0  0  0  0  0
   -1.3098    0.8295    0.8216 H   0  0  0  0  0  0  0  0  0  0  0  0
   -1.3448    0.7321   -0.8865 H   0  0  0  0  0  0  0  0  0  0  0  0
   -0.1793   -1.5241    1.1166 H   0  0  0  0  0  0  0  0  0  0  0  0
    0.7861   -0.0646   -0.2248 H   0  0  0  0  0  0  0  0  0  0  0  0
   -0.1557   -1.1217   -0.7091 H   0  0  0  0  0  0  0  0  0  0  0  0
  1  5  1  0  0  0  0
  2  1  1  0  0  0  0
  2  8  1  0  0  0  0
  3  1  1  0  0  0  0
  4  1  1  0  0  0  0
  6  2  1  0  0  0  0
  6  9  1  0  0  0  0
  6 10  1  0  0  0  0
  7  2  1  0  0  0  0
  9 12  1  0  0  0  0
 11  6  1  0  0  0  0
 13  9  1  0  0  0  0
 14  9  1  0  0  0  0
M  END
$$$$
