14
butane_opt
C  -3.952857   0.261546   0.004801
C  -2.701242  -0.613848   0.050996
H  -4.882773  -0.356558   0.089257
H  -3.964486   0.912307  -0.913590
H  -3.955521   0.927836   0.869488
C  -1.398642   0.193042   0.012196
H  -2.760434  -1.243539  -0.776049
H  -2.742599  -1.290576   0.993081
C  -0.154155  -0.703125   0.021628
H  -1.388835   0.868790   0.887769
H  -1.407424   0.841488  -0.890865
H  -0.164697  -1.218442   0.836825
H   0.788358  -0.109482   0.156430
H  -0.062584  -1.454774  -0.898306
