butane_opt
 OpenBabel08242015423D

 14 13  0  0  0  0  0  0  0  0999 V2000
   -3.9507    0.2869    0.0567 C   0  0  0  0  0  0  0  0  0  0  0  0
   -2.6881   -0.6344   -0.0105 C   0  0  0  0  0  0  0  0  0  0  0  0
   -4.9013   -0.2903    0.0521 H   0  0  0  0  0  0  0  0  0  0  0  0
   -3.8723    0.8314   -0.8038 H   0  0  0  0  0  0  0  0  0  0  0  0
   -3.9213    0.9720    0.9590 H   0  0  0  0  0  0  0  0  0  0  0  0
   -1.3974    0.1492   -0.0134 C   0  0  0  0  0  0  0  0  0  0  0  0
   -2.7208   -1.4229   -0.9492 H   0  0  0  0  0  0  0  0  0  0  0  0
   -2.5858   -1.1028    0.7660 H   0  0  0  0  0  0  0  0  0  0  0  0
   -0.1786   -0.6732    0.0726 C   0  0  0  0  0  0  0  0  0  0  0  0
   -1.4740    0.8250    0.8436 H   0  0  0  0  0  0  0  0  0  0  0  0
   -1.3677    0.8320   -0.9082 H   0  0  0  0  0  0  0  0  0  0  0  0
   -0.1094   -1.5026    1.0988 H   0  0  0  0  0  0  0  0  0  0  0  0
    0.7464   -0.0561   -0.2153 H   0  0  0  0  0  0  0  0  0  0  0  0
   -0.2569   -1.0930   -0.6451 H   0  0  0  0  0  0  0  0  0  0  0  0
  1  5  1  0  0  0  0
  2  1  1  0  0  0  0
  2  8  1  0  0  0  0
  3  1  1  0  0  0  0
  4  1  1  0  0  0  0
  6  2  1  0  0  0  0
  6  9  1  0  0  0  0
  6 10  1  0  0  0  0
  7  2  1  0  0  0  0
  9 12  1  0  0  0  0
 11  6  1  0  0  0  0
 13  9  1  0  0  0  0
 14  9  1  0  0  0  0
M  END
$$$$
