14
butane_opt
C  -3.952224   0.246785  -0.027607
C  -2.723460  -0.592597   0.083029
H  -4.873719  -0.391233   0.107446
H  -4.028267   1.061107  -1.059819
H  -3.924447   0.797174   0.779330
C  -1.385367   0.197274   0.064257
H  -2.762257  -1.155053  -0.690989
H  -2.785625  -1.280382   1.022245
C  -0.124208  -0.708257  -0.016197
H  -1.423780   0.851411   0.901997
H  -1.428583   0.807094  -0.843698
H  -0.153264  -1.105421   0.745576
H   0.730853  -0.152842   0.180963
H  -0.132471  -1.629250  -0.991473
