butane_opt
 OpenBabel08242015423D

 14 13  0  0  0  0  0  0  0  0999 V2000
   -3.9334    0.2921   -0.0151 C   0  0  0  0  0  0  0  0  0  0  0  0
   -2.6841   -0.6360    0.1016 C   0  0  0  0  0  0  0  0  0  0  0  0
   -4.7988   -0.2870    0.0071 H   0  0  0  0  0  0  0  0  0  0  0  0
   -3.9089    0.9580   -0.9993 H   0  0  0  0  0  0  0  0  0  0  0  0
   -4.0308    0.8621    0.7898 H   0  0  0  0  0  0  0  0  0  0  0  0
   -1.4051    0.1482    0.0381 C   0  0  0  0  0  0  0  0  0  0  0  0
   -2.7020   -1.2395   -0.7543 H   0  0  0  0  0  0  0  0  0  0  0  0
   -2.7811   -1.2585    1.0036 H   0  0  0  0  0  0  0  0  0  0  0  0
   -0.1874   -0.6697   -0.0155 C   0  0  0  0  0  0  0  0  0  0  0  0
   -1.2652    0.7915    0.8791 H   0  0  0  0  0  0  0  0  0  0  0  0
   -1.4922    0.7724   -0.8478 H   0  0  0  0  0  0  0  0  0  0  0  0
   -0.2344   -1.1540    0.7997 H   0  0  0  0  0  0  0  0  0  0  0  0
    0.8049    0.0152    0.2482 H   0  0  0  0  0  0  0  0  0  0  0  0
   -0.1197   -1.5336   -1.0013 H   0  0  0  0  0  0  0  0  0  0  0  0
  1  3  1  0  0  0  0
  1  2  1  0  0  0  0
  1  5  1  0  0  0  0
  2  8  1  0  0  0  0
  4  1  1  0  0  0  0
  6  2  1  0  0  0  0
  6 10  1  0  0  0  0
  7  2  1  0  0  0  0
  9  6  1  0  0  0  0
  9 13  1  0  0  0  0
  9 12  1  0  0  0  0
 11  6  1  0  0  0  0
 14  9  1  0  0  0  0
M  END
$$$$
