14
butane_opt
C  -3.933394   0.292085  -0.015108
C  -2.684088  -0.636007   0.101578
H  -4.798762  -0.286991   0.007146
H  -3.908921   0.958005  -0.999325
H  -4.030764   0.862065   0.789777
C  -1.405105   0.148191   0.038109
H  -2.701971  -1.239528  -0.754320
H  -2.781145  -1.258469   1.003608
C  -0.187399  -0.669711  -0.015466
H  -1.265171   0.791453   0.879055
H  -1.492203   0.772405  -0.847849
H  -0.234371  -1.153970   0.799700
H   0.804896   0.015234   0.248220
H  -0.119731  -1.533635  -1.001302
