butane_opt
 OpenBabel08242015423D

 14 13  0  0  0  0  0  0  0  0999 V2000
   -3.9191    0.2496   -0.0171 C   0  0  0  0  0  0  0  0  0  0  0  0
   -2.7154   -0.6043    0.0646 C   0  0  0  0  0  0  0  0  0  0  0  0
   -4.8372   -0.3227    0.0278 H   0  0  0  0  0  0  0  0  0  0  0  0
   -3.9732    1.0052   -0.9834 H   0  0  0  0  0  0  0  0  0  0  0  0
   -3.9299    0.8218    0.7913 H   0  0  0  0  0  0  0  0  0  0  0  0
   -1.4064    0.1912    0.0679 C   0  0  0  0  0  0  0  0  0  0  0  0
   -2.7121   -1.2975   -0.8243 H   0  0  0  0  0  0  0  0  0  0  0  0
   -2.7906   -1.1920    0.9689 H   0  0  0  0  0  0  0  0  0  0  0  0
   -0.1712   -0.7012    0.0016 C   0  0  0  0  0  0  0  0  0  0  0  0
   -1.4586    0.9388    0.9886 H   0  0  0  0  0  0  0  0  0  0  0  0
   -1.4015    0.8244   -0.7978 H   0  0  0  0  0  0  0  0  0  0  0  0
    0.0580   -1.4125    0.9281 H   0  0  0  0  0  0  0  0  0  0  0  0
    0.7869   -0.1000   -0.1885 H   0  0  0  0  0  0  0  0  0  0  0  0
   -0.2296   -1.3576   -0.8909 H   0  0  0  0  0  0  0  0  0  0  0  0
  1  3  1  0  0  0  0
  1  2  1  0  0  0  0
  1  5  1  0  0  0  0
  2  6  1  0  0  0  0
  2  8  1  0  0  0  0
  4  1  1  0  0  0  0
  6 10  1  0  0  0  0
  7  2  1  0  0  0  0
  9  6  1  0  0  0  0
  9 12  1  0  0  0  0
 11  6  1  0  0  0  0
 13  9  1  0  0  0  0
 14  9  1  0  0  0  0
M  END
$$$$
