14
butane_opt
C  -3.922118   0.247008  -0.017146
C  -2.703248  -0.598545   0.103274
H  -4.829156  -0.325969   0.002276
H  -3.861719   0.942456  -0.980973
H  -4.013390   0.845609   0.772434
C  -1.434145   0.193164   0.022849
H  -2.749504  -1.250815  -0.748849
H  -2.705451  -1.244855   1.035947
C  -0.149007  -0.698675   0.001829
H  -1.321130   0.887923   0.929111
H  -1.456080   0.816444  -0.846083
H  -0.209847  -1.158179   0.786787
H   0.734739  -0.076934   0.144219
H  -0.106120  -1.635191  -1.016985
