butane_opt
 OpenBabel08242015423D

 14 13  0  0  0  0  0  0  0  0999 V2000
   -3.9162    0.2632   -0.0186 C   0  0  0  0  0  0  0  0  0  0  0  0
   -2.6972   -0.5914    0.0583 C   0  0  0  0  0  0  0  0  0  0  0  0
   -4.9240   -0.4217    0.2436 H   0  0  0  0  0  0  0  0  0  0  0  0
   -3.9344    0.9830   -1.0122 H   0  0  0  0  0  0  0  0  0  0  0  0
   -3.8889    0.7284    0.7197 H   0  0  0  0  0  0  0  0  0  0  0  0
   -1.4166    0.1908    0.0491 C   0  0  0  0  0  0  0  0  0  0  0  0
   -2.7294   -1.2332   -0.7290 H   0  0  0  0  0  0  0  0  0  0  0  0
   -2.7588   -1.2281    0.9868 H   0  0  0  0  0  0  0  0  0  0  0  0
   -0.1776   -0.7036   -0.0077 C   0  0  0  0  0  0  0  0  0  0  0  0
   -1.3020    0.9144    0.9787 H   0  0  0  0  0  0  0  0  0  0  0  0
   -1.5005    0.7310   -0.7918 H   0  0  0  0  0  0  0  0  0  0  0  0
   -0.1601   -1.2520    0.8872 H   0  0  0  0  0  0  0  0  0  0  0  0
    0.7140   -0.1072    0.1057 H   0  0  0  0  0  0  0  0  0  0  0  0
   -0.0519   -1.5007   -0.9393 H   0  0  0  0  0  0  0  0  0  0  0  0
  1  2  1  0  0  0  0
  1  3  1  0  0  0  0
  1  5  1  0  0  0  0
  2  8  1  0  0  0  0
  4  1  1  0  0  0  0
  6  2  1  0  0  0  0
  6 10  1  0  0  0  0
  7  2  1  0  0  0  0
  9  6  1  0  0  0  0
  9 13  1  0  0  0  0
  9 12  1  0  0  0  0
 11  6  1  0  0  0  0
 14  9  1  0  0  0  0
M  END
$$$$
