14
butane_opt
C  -3.953647   0.249446  -0.016270
C  -2.704553  -0.589713   0.063810
H  -4.932298  -0.362583   0.173102
H  -3.983432   1.015279  -1.050058
H  -3.939774   0.840363   0.765807
C  -1.394801   0.190877   0.041550
H  -2.723186  -1.174570  -0.681095
H  -2.757079  -1.372787   1.068599
C  -0.162317  -0.709168   0.003438
H  -1.306061   0.909809   0.938504
H  -1.364582   0.786817  -0.827054
H  -0.122969  -1.091877   0.735379
H   0.745345  -0.136243   0.186491
H  -0.045265  -1.590325  -1.014709
