14
butane_opt
C  -3.940835   0.272439  -0.008122
C  -2.694622  -0.615251   0.046956
H  -4.857044  -0.337476   0.150769
H  -4.004829   1.015523  -0.976387
H  -3.906545   0.828018   0.770850
C  -1.403480   0.165358   0.048142
H  -2.677461  -1.245347  -0.768418
H  -2.694763  -1.287918   0.965406
C  -0.179293  -0.687103   0.013294
H  -1.333749   0.896729   0.917904
H  -1.381286   0.736902  -0.805031
H  -0.086384  -1.230734   0.820567
H   0.753625  -0.093195   0.011277
H  -0.216268  -1.372849  -0.863822
