butane_opt
 OpenBabel08242015423D

 14 13  0  0  0  0  0  0  0  0999 V2000
   -3.9396    0.2507   -0.0300 C   0  0  0  0  0  0  0  0  0  0  0  0
   -2.7205   -0.6059    0.0838 C   0  0  0  0  0  0  0  0  0  0  0  0
   -4.8440   -0.3217    0.1139 H   0  0  0  0  0  0  0  0  0  0  0  0
   -3.9812    0.9149   -0.9589 H   0  0  0  0  0  0  0  0  0  0  0  0
   -4.0135    0.7652    0.7227 H   0  0  0  0  0  0  0  0  0  0  0  0
   -1.4043    0.2324    0.0568 C   0  0  0  0  0  0  0  0  0  0  0  0
   -2.7210   -1.2003   -0.7106 H   0  0  0  0  0  0  0  0  0  0  0  0
   -2.7872   -1.3479    1.0578 H   0  0  0  0  0  0  0  0  0  0  0  0
   -0.1420   -0.7217   -0.0156 C   0  0  0  0  0  0  0  0  0  0  0  0
   -1.3886    0.9656    0.9642 H   0  0  0  0  0  0  0  0  0  0  0  0
   -1.3511    0.8111   -0.8003 H   0  0  0  0  0  0  0  0  0  0  0  0
   -0.1230   -1.2230    0.7798 H   0  0  0  0  0  0  0  0  0  0  0  0
    0.7704   -0.1877    0.1164 H   0  0  0  0  0  0  0  0  0  0  0  0
   -0.0957   -1.5206   -1.0084 H   0  0  0  0  0  0  0  0  0  0  0  0
  1  2  1  0  0  0  0
  1  3  1  0  0  0  0
  1  5  1  0  0  0  0
  2  8  1  0  0  0  0
  4  1  1  0  0  0  0
  6  2  1  0  0  0  0
  6 10  1  0  0  0  0
  7  2  1  0  0  0  0
  9  6  1  0  0  0  0
  9 13  1  0  0  0  0
  9 12  1  0  0  0  0
 11  6  1  0  0  0  0
 14  9  1  0  0  0  0
M  END
$$$$
