butane_opt
 OpenBabel08242015423D

 14 13  0  0  0  0  0  0  0  0999 V2000
   -3.9453    0.2769    0.0517 C   0  0  0  0  0  0  0  0  0  0  0  0
   -2.7001   -0.6409    0.0232 C   0  0  0  0  0  0  0  0  0  0  0  0
   -4.8096   -0.3195   -0.2024 H   0  0  0  0  0  0  0  0  0  0  0  0
   -3.9063    0.7320   -0.7070 H   0  0  0  0  0  0  0  0  0  0  0  0
   -4.0552    1.0999    1.0212 H   0  0  0  0  0  0  0  0  0  0  0  0
   -1.4002    0.2018   -0.0351 C   0  0  0  0  0  0  0  0  0  0  0  0
   -2.7671   -1.3295   -0.8618 H   0  0  0  0  0  0  0  0  0  0  0  0
   -2.7835   -1.2322    0.9204 H   0  0  0  0  0  0  0  0  0  0  0  0
   -0.1612   -0.6997    0.0509 C   0  0  0  0  0  0  0  0  0  0  0  0
   -1.3882    0.8234    0.8016 H   0  0  0  0  0  0  0  0  0  0  0  0
   -1.3910    0.8178   -0.8930 H   0  0  0  0  0  0  0  0  0  0  0  0
   -0.1398   -1.4295    1.0172 H   0  0  0  0  0  0  0  0  0  0  0  0
    0.7730   -0.1020   -0.0402 H   0  0  0  0  0  0  0  0  0  0  0  0
   -0.0811   -1.1800   -0.6741 H   0  0  0  0  0  0  0  0  0  0  0  0
  1  5  1  0  0  0  0
  2  1  1  0  0  0  0
  2  8  1  0  0  0  0
  3  1  1  0  0  0  0
  4  1  1  0  0  0  0
  6  2  1  0  0  0  0
  6  9  1  0  0  0  0
  6 10  1  0  0  0  0
  7  2  1  0  0  0  0
  9 12  1  0  0  0  0
 11  6  1  0  0  0  0
 13  9  1  0  0  0  0
 14  9  1  0  0  0  0
M  END
$$$$
