butane_opt
 OpenBabel08242015423D

 14 13  0  0  0  0  0  0  0  0999 V2000
   -3.9367    0.2499   -0.0570 C   0  0  0  0  0  0  0  0  0  0  0  0
   -2.7079   -0.6101    0.0881 C   0  0  0  0  0  0  0  0  0  0  0  0
   -4.8653   -0.3814    0.0166 H   0  0  0  0  0  0  0  0  0  0  0  0
   -3.9946    0.8282   -0.9072 H   0  0  0  0  0  0  0  0  0  0  0  0
   -3.9992    0.8661    0.7927 H   0  0  0  0  0  0  0  0  0  0  0  0
   -1.4166    0.2274    0.0867 C   0  0  0  0  0  0  0  0  0  0  0  0
   -2.7230   -1.2164   -0.6830 H   0  0  0  0  0  0  0  0  0  0  0  0
   -2.8193   -1.2218    1.0045 H   0  0  0  0  0  0  0  0  0  0  0  0
   -0.1318   -0.7234   -0.0306 C   0  0  0  0  0  0  0  0  0  0  0  0
   -1.3426    0.9863    1.0353 H   0  0  0  0  0  0  0  0  0  0  0  0
   -1.4946    0.7878   -0.7559 H   0  0  0  0  0  0  0  0  0  0  0  0
    0.0406   -1.4264    0.8939 H   0  0  0  0  0  0  0  0  0  0  0  0
    0.7437   -0.1460   -0.1684 H   0  0  0  0  0  0  0  0  0  0  0  0
   -0.2401   -1.2825   -0.8208 H   0  0  0  0  0  0  0  0  0  0  0  0
  1  3  1  0  0  0  0
  1  2  1  0  0  0  0
  1  5  1  0  0  0  0
  2  8  1  0  0  0  0
  4  1  1  0  0  0  0
  6  2  1  0  0  0  0
  6 10  1  0  0  0  0
  7  2  1  0  0  0  0
  9  6  1  0  0  0  0
  9 12  1  0  0  0  0
 11  6  1  0  0  0  0
 13  9  1  0  0  0  0
 14  9  1  0  0  0  0
M  END
$$$$
