butane_opt
 OpenBabel08242015423D

 14 13  0  0  0  0  0  0  0  0999 V2000
   -3.9297    0.2739   -0.0359 C   0  0  0  0  0  0  0  0  0  0  0  0
   -2.6969   -0.6174    0.0804 C   0  0  0  0  0  0  0  0  0  0  0  0
   -4.8169   -0.2791    0.0303 H   0  0  0  0  0  0  0  0  0  0  0  0
   -3.9710    0.9978   -1.0639 H   0  0  0  0  0  0  0  0  0  0  0  0
   -4.0019    0.8419    0.7434 H   0  0  0  0  0  0  0  0  0  0  0  0
   -1.4010    0.1640    0.1056 C   0  0  0  0  0  0  0  0  0  0  0  0
   -2.6119   -1.3102   -0.7650 H   0  0  0  0  0  0  0  0  0  0  0  0
   -2.7318   -1.2518    0.9823 H   0  0  0  0  0  0  0  0  0  0  0  0
   -0.1784   -0.6840   -0.0274 C   0  0  0  0  0  0  0  0  0  0  0  0
   -1.2496    0.8598    1.0090 H   0  0  0  0  0  0  0  0  0  0  0  0
   -1.4872    0.7338   -0.7683 H   0  0  0  0  0  0  0  0  0  0  0  0
   -0.1522   -1.3611    0.9270 H   0  0  0  0  0  0  0  0  0  0  0  0
    0.7722   -0.0092   -0.2251 H   0  0  0  0  0  0  0  0  0  0  0  0
   -0.3037   -1.3161   -0.9055 H   0  0  0  0  0  0  0  0  0  0  0  0
  1  3  1  0  0  0  0
  1  2  1  0  0  0  0
  1  5  1  0  0  0  0
  2  6  1  0  0  0  0
  2  8  1  0  0  0  0
  4  1  1  0  0  0  0
  6 10  1  0  0  0  0
  7  2  1  0  0  0  0
  9  6  1  0  0  0  0
  9 12  1  0  0  0  0
 11  6  1  0  0  0  0
 13  9  1  0  0  0  0
 14  9  1  0  0  0  0
M  END
$$$$
