butane_opt
 OpenBabel08242015423D

 14 13  0  0  0  0  0  0  0  0999 V2000
   -3.9395    0.2382    0.0452 C   0  0  0  0  0  0  0  0  0  0  0  0
   -2.7012   -0.5903    0.0228 C   0  0  0  0  0  0  0  0  0  0  0  0
   -4.7914   -0.3538   -0.1483 H   0  0  0  0  0  0  0  0  0  0  0  0
   -3.9186    0.6524   -0.7107 H   0  0  0  0  0  0  0  0  0  0  0  0
   -4.0253    1.0982    1.0047 H   0  0  0  0  0  0  0  0  0  0  0  0
   -1.4267    0.2153   -0.0225 C   0  0  0  0  0  0  0  0  0  0  0  0
   -2.6866   -1.3542   -0.8775 H   0  0  0  0  0  0  0  0  0  0  0  0
   -2.7688   -1.1853    0.9181 H   0  0  0  0  0  0  0  0  0  0  0  0
   -0.1426   -0.7086    0.0666 C   0  0  0  0  0  0  0  0  0  0  0  0
   -1.4057    0.7768    0.7542 H   0  0  0  0  0  0  0  0  0  0  0  0
   -1.3607    0.9080   -0.9919 H   0  0  0  0  0  0  0  0  0  0  0  0
   -0.0157   -1.4279    1.0096 H   0  0  0  0  0  0  0  0  0  0  0  0
    0.6987   -0.1857   -0.0670 H   0  0  0  0  0  0  0  0  0  0  0  0
   -0.2148   -1.2628   -0.7532 H   0  0  0  0  0  0  0  0  0  0  0  0
  1  5  1  0  0  0  0
  2  1  1  0  0  0  0
  2  8  1  0  0  0  0
  3  1  1  0  0  0  0
  4  1  1  0  0  0  0
  6  2  1  0  0  0  0
  6  9  1  0  0  0  0
  6 10  1  0  0  0  0
  7  2  1  0  0  0  0
  9 12  1  0  0  0  0
 11  6  1  0  0  0  0
 13  9  1  0  0  0  0
 14  9  1  0  0  0  0
M  END
$$$$
