butane_opt
 OpenBabel08242015423D

 14 13  0  0  0  0  0  0  0  0999 V2000
   -3.9499    0.2816   -0.0390 C   0  0  0  0  0  0  0  0  0  0  0  0
   -2.6845   -0.6230    0.0700 C   0  0  0  0  0  0  0  0  0  0  0  0
   -4.8402   -0.3246    0.1759 H   0  0  0  0  0  0  0  0  0  0  0  0
   -4.0098    1.0713   -1.0348 H   0  0  0  0  0  0  0  0  0  0  0  0
   -3.9085    0.8147    0.7785 H   0  0  0  0  0  0  0  0  0  0  0  0
   -1.3813    0.1453    0.0882 C   0  0  0  0  0  0  0  0  0  0  0  0
   -2.6256   -1.2566   -0.6998 H   0  0  0  0  0  0  0  0  0  0  0  0
   -2.7305   -1.3056    0.9886 H   0  0  0  0  0  0  0  0  0  0  0  0
   -0.1925   -0.6721   -0.0220 C   0  0  0  0  0  0  0  0  0  0  0  0
   -1.3826    0.9093    0.9827 H   0  0  0  0  0  0  0  0  0  0  0  0
   -1.3836    0.7651   -0.8183 H   0  0  0  0  0  0  0  0  0  0  0  0
   -0.1917   -1.2393    0.8346 H   0  0  0  0  0  0  0  0  0  0  0  0
    0.7361   -0.0340   -0.0244 H   0  0  0  0  0  0  0  0  0  0  0  0
   -0.1987   -1.4415   -0.9386 H   0  0  0  0  0  0  0  0  0  0  0  0
  1  2  1  0  0  0  0
  1  3  1  0  0  0  0
  1  5  1  0  0  0  0
  2  6  1  0  0  0  0
  2  8  1  0  0  0  0
  4  1  1  0  0  0  0
  6 10  1  0  0  0  0
  7  2  1  0  0  0  0
  9  6  1  0  0  0  0
  9 12  1  0  0  0  0
 11  6  1  0  0  0  0
 13  9  1  0  0  0  0
 14  9  1  0  0  0  0
M  END
$$$$
