14
butane_opt
C  -3.965309   0.243425  -0.022421
C  -2.696046  -0.610048   0.059722
H  -4.876422  -0.350332   0.295298
H  -4.032354   1.010094  -1.044026
H  -3.834460   0.696288   0.681824
C  -1.408572   0.221547   0.056377
H  -2.705879  -1.197586  -0.744912
H  -2.777187  -1.204137   0.961838
C  -0.140532  -0.711419  -0.004266
H  -1.438544   1.006669   0.985128
H  -1.365189   0.768339  -0.772116
H  -0.026759  -1.263598   0.806679
H   0.685265  -0.188070   0.067736
H  -0.119638  -1.483479  -0.898240
