butane_opt
 OpenBabel08242015423D

 14 13  0  0  0  0  0  0  0  0999 V2000
   -3.9832    0.2788    0.0697 C   0  0  0  0  0  0  0  0  0  0  0  0
   -2.6976   -0.6316   -0.0399 C   0  0  0  0  0  0  0  0  0  0  0  0
   -4.8897   -0.2955    0.2509 H   0  0  0  0  0  0  0  0  0  0  0  0
   -4.1879    0.9331   -0.8376 H   0  0  0  0  0  0  0  0  0  0  0  0
   -3.7870    0.9592    0.9688 H   0  0  0  0  0  0  0  0  0  0  0  0
   -1.3975    0.1728   -0.0510 C   0  0  0  0  0  0  0  0  0  0  0  0
   -2.7610   -1.3831   -0.9283 H   0  0  0  0  0  0  0  0  0  0  0  0
   -2.6278   -1.2699    0.8269 H   0  0  0  0  0  0  0  0  0  0  0  0
   -0.1451   -0.6790    0.0884 C   0  0  0  0  0  0  0  0  0  0  0  0
   -1.3787    0.8195    0.8203 H   0  0  0  0  0  0  0  0  0  0  0  0
   -1.2788    0.8144   -0.9315 H   0  0  0  0  0  0  0  0  0  0  0  0
   -0.2127   -1.3532    1.0496 H   0  0  0  0  0  0  0  0  0  0  0  0
    0.8207   -0.0789    0.1272 H   0  0  0  0  0  0  0  0  0  0  0  0
   -0.0507   -1.2900   -0.7180 H   0  0  0  0  0  0  0  0  0  0  0  0
  1  3  1  0  0  0  0
  1  5  1  0  0  0  0
  2  1  1  0  0  0  0
  2  8  1  0  0  0  0
  4  1  1  0  0  0  0
  6  2  1  0  0  0  0
  6  9  1  0  0  0  0
  6 10  1  0  0  0  0
  7  2  1  0  0  0  0
  9 13  1  0  0  0  0
  9 12  1  0  0  0  0
 11  6  1  0  0  0  0
 14  9  1  0  0  0  0
M  END
$$$$
