butane_opt
 OpenBabel08242015423D

 14 13  0  0  0  0  0  0  0  0999 V2000
   -3.9279    0.2723   -0.0060 C   0  0  0  0  0  0  0  0  0  0  0  0
   -2.6925   -0.6024    0.0685 C   0  0  0  0  0  0  0  0  0  0  0  0
   -4.9305   -0.3619    0.0345 H   0  0  0  0  0  0  0  0  0  0  0  0
   -3.9453    0.8335   -0.8734 H   0  0  0  0  0  0  0  0  0  0  0  0
   -3.8727    0.9548    0.8843 H   0  0  0  0  0  0  0  0  0  0  0  0
   -1.4072    0.1667   -0.0018 C   0  0  0  0  0  0  0  0  0  0  0  0
   -2.7072   -1.2152   -0.7096 H   0  0  0  0  0  0  0  0  0  0  0  0
   -2.7771   -1.3530    1.0152 H   0  0  0  0  0  0  0  0  0  0  0  0
   -0.1803   -0.6980    0.0168 C   0  0  0  0  0  0  0  0  0  0  0  0
   -1.3153    0.8568    0.8993 H   0  0  0  0  0  0  0  0  0  0  0  0
   -1.4488    0.8467   -0.9002 H   0  0  0  0  0  0  0  0  0  0  0  0
   -0.1653   -1.1098    0.8128 H   0  0  0  0  0  0  0  0  0  0  0  0
    0.7252   -0.0990    0.2600 H   0  0  0  0  0  0  0  0  0  0  0  0
   -0.0963   -1.4968   -0.9170 H   0  0  0  0  0  0  0  0  0  0  0  0
  1  3  1  0  0  0  0
  1  2  1  0  0  0  0
  1  5  1  0  0  0  0
  2  8  1  0  0  0  0
  4  1  1  0  0  0  0
  6  9  1  0  0  0  0
  6  2  1  0  0  0  0
  6 10  1  0  0  0  0
  7  2  1  0  0  0  0
  9 13  1  0  0  0  0
  9 12  1  0  0  0  0
 11  6  1  0  0  0  0
 14  9  1  0  0  0  0
M  END
$$$$
