14
butane_opt
C  -3.927949   0.272258  -0.006015
C  -2.692544  -0.602360   0.068478
H  -4.930538  -0.361932   0.034488
H  -3.945252   0.833494  -0.873395
H  -3.872695   0.954839   0.884253
C  -1.407235   0.166651  -0.001760
H  -2.707180  -1.215224  -0.709576
H  -2.777080  -1.352970   1.015165
C  -0.180283  -0.697976   0.016842
H  -1.315287   0.856783   0.899331
H  -1.448765   0.846732  -0.900243
H  -0.165251  -1.109817   0.812762
H   0.725203  -0.098998   0.260043
H  -0.096345  -1.496753  -0.916980
