butane_opt
 OpenBabel08242015423D

 14 13  0  0  0  0  0  0  0  0999 V2000
   -3.9394    0.2576   -0.0299 C   0  0  0  0  0  0  0  0  0  0  0  0
   -2.7243   -0.6180    0.0820 C   0  0  0  0  0  0  0  0  0  0  0  0
   -4.8465   -0.3408    0.0191 H   0  0  0  0  0  0  0  0  0  0  0  0
   -3.9112    0.9053   -0.9884 H   0  0  0  0  0  0  0  0  0  0  0  0
   -4.0384    0.9012    0.7694 H   0  0  0  0  0  0  0  0  0  0  0  0
   -1.4057    0.2095    0.0696 C   0  0  0  0  0  0  0  0  0  0  0  0
   -2.7434   -1.2743   -0.7482 H   0  0  0  0  0  0  0  0  0  0  0  0
   -2.6820   -1.2700    0.9378 H   0  0  0  0  0  0  0  0  0  0  0  0
   -0.1483   -0.7156   -0.0173 C   0  0  0  0  0  0  0  0  0  0  0  0
   -1.3358    1.0196    1.0386 H   0  0  0  0  0  0  0  0  0  0  0  0
   -1.4397    0.7698   -0.7589 H   0  0  0  0  0  0  0  0  0  0  0  0
    0.0087   -1.4310    0.9198 H   0  0  0  0  0  0  0  0  0  0  0  0
    0.7632   -0.0623   -0.1798 H   0  0  0  0  0  0  0  0  0  0  0  0
   -0.1876   -1.2874   -0.8166 H   0  0  0  0  0  0  0  0  0  0  0  0
  1  3  1  0  0  0  0
  1  2  1  0  0  0  0
  1  5  1  0  0  0  0
  2  8  1  0  0  0  0
  4  1  1  0  0  0  0
  6  2  1  0  0  0  0
  6 10  1  0  0  0  0
  7  2  1  0  0  0  0
  9  6  1  0  0  0  0
  9 12  1  0  0  0  0
 11  6  1  0  0  0  0
 13  9  1  0  0  0  0
 14  9  1  0  0  0  0
M  END
$$$$
