14
butane_opt
C  -3.940057   0.290152   0.000190
C  -2.697714  -0.645981   0.068373
H  -4.818831  -0.306942   0.010405
H  -3.973783   0.924716  -0.937326
H  -4.015042   0.931564   0.842889
C  -1.388317   0.167203   0.006672
H  -2.640426  -1.248415  -0.718045
H  -2.687016  -1.333918   1.039230
C  -0.181058  -0.682748   0.018946
H  -1.347139   0.896057   0.883605
H  -1.352551   0.771136  -0.864526
H  -0.185327  -1.082756   0.812513
H   0.739983  -0.094028   0.158512
H  -0.249282  -1.477269  -0.933779
