14
butane_opt
C  -3.918261   0.248775  -0.052519
C  -2.701824  -0.594912   0.131196
H  -4.824118  -0.382450  -0.180996
H  -3.887260   0.774502  -0.897776
H  -4.006323   0.976391   0.840903
C  -1.434422   0.216909   0.055339
H  -2.715166  -1.267763  -0.683210
H  -2.787015  -1.368780   1.109490
C  -0.154067  -0.713135  -0.034648
H  -1.369423   0.882184   0.937231
H  -1.494091   0.845258  -0.785107
H  -0.083445  -1.204558   0.809019
H   0.758428  -0.148755   0.034782
H  -0.109484  -1.467267  -0.947519
