butane_opt
 OpenBabel08242015423D

 14 13  0  0  0  0  0  0  0  0999 V2000
   -3.9183    0.2488   -0.0525 C   0  0  0  0  0  0  0  0  0  0  0  0
   -2.7018   -0.5949    0.1312 C   0  0  0  0  0  0  0  0  0  0  0  0
   -4.8241   -0.3825   -0.1810 H   0  0  0  0  0  0  0  0  0  0  0  0
   -3.8873    0.7745   -0.8978 H   0  0  0  0  0  0  0  0  0  0  0  0
   -4.0063    0.9764    0.8409 H   0  0  0  0  0  0  0  0  0  0  0  0
   -1.4344    0.2169    0.0553 C   0  0  0  0  0  0  0  0  0  0  0  0
   -2.7152   -1.2678   -0.6832 H   0  0  0  0  0  0  0  0  0  0  0  0
   -2.7870   -1.3688    1.1095 H   0  0  0  0  0  0  0  0  0  0  0  0
   -0.1541   -0.7131   -0.0346 C   0  0  0  0  0  0  0  0  0  0  0  0
   -1.3694    0.8822    0.9372 H   0  0  0  0  0  0  0  0  0  0  0  0
   -1.4941    0.8453   -0.7851 H   0  0  0  0  0  0  0  0  0  0  0  0
   -0.0834   -1.2046    0.8090 H   0  0  0  0  0  0  0  0  0  0  0  0
    0.7584   -0.1488    0.0348 H   0  0  0  0  0  0  0  0  0  0  0  0
   -0.1095   -1.4673   -0.9475 H   0  0  0  0  0  0  0  0  0  0  0  0
  1  2  1  0  0  0  0
  1  5  1  0  0  0  0
  2  8  1  0  0  0  0
  3  1  1  0  0  0  0
  4  1  1  0  0  0  0
  6  2  1  0  0  0  0
  6 10  1  0  0  0  0
  7  2  1  0  0  0  0
  9 13  1  0  0  0  0
  9  6  1  0  0  0  0
  9 12  1  0  0  0  0
 11  6  1  0  0  0  0
 14  9  1  0  0  0  0
M  END
$$$$
