butane_opt
 OpenBabel08242015423D

 14 13  0  0  0  0  0  0  0  0999 V2000
   -3.9395    0.2636   -0.0302 C   0  0  0  0  0  0  0  0  0  0  0  0
   -2.6965   -0.6199    0.0721 C   0  0  0  0  0  0  0  0  0  0  0  0
   -4.8238   -0.2978    0.0004 H   0  0  0  0  0  0  0  0  0  0  0  0
   -3.9250    0.8551   -0.8790 H   0  0  0  0  0  0  0  0  0  0  0  0
   -4.0577    0.9862    0.8648 H   0  0  0  0  0  0  0  0  0  0  0  0
   -1.3925    0.1864    0.0660 C   0  0  0  0  0  0  0  0  0  0  0  0
   -2.6796   -1.3323   -0.7732 H   0  0  0  0  0  0  0  0  0  0  0  0
   -2.7719   -1.2037    0.9800 H   0  0  0  0  0  0  0  0  0  0  0  0
   -0.1599   -0.6890    0.0004 C   0  0  0  0  0  0  0  0  0  0  0  0
   -1.4210    0.8182    0.8912 H   0  0  0  0  0  0  0  0  0  0  0  0
   -1.4312    0.7913   -0.8156 H   0  0  0  0  0  0  0  0  0  0  0  0
   -0.0589   -1.3867    0.9707 H   0  0  0  0  0  0  0  0  0  0  0  0
    0.7342   -0.0953   -0.2023 H   0  0  0  0  0  0  0  0  0  0  0  0
   -0.3244   -1.3002   -0.8824 H   0  0  0  0  0  0  0  0  0  0  0  0
  1  3  1  0  0  0  0
  1  2  1  0  0  0  0
  1  5  1  0  0  0  0
  2  8  1  0  0  0  0
  4  1  1  0  0  0  0
  6  2  1  0  0  0  0
  6 10  1  0  0  0  0
  7  2  1  0  0  0  0
  9  6  1  0  0  0  0
  9 12  1  0  0  0  0
 11  6  1  0  0  0  0
 13  9  1  0  0  0  0
 14  9  1  0  0  0  0
M  END
$$$$
