14
butane_opt
C  -3.932867   0.234085  -0.015128
C  -2.695533  -0.585194   0.098929
H  -4.844103  -0.392232   0.023377
H  -3.948551   0.976696  -0.984755
H  -3.944238   0.828610   0.754018
C  -1.416917   0.211597   0.036978
H  -2.758931  -1.214673  -0.739157
H  -2.774448  -1.215665   1.001184
C  -0.162658  -0.717701   0.000031
H  -1.463418   0.861070   0.864077
H  -1.414284   0.812092  -0.880174
H  -0.094021  -1.114762   0.725418
H   0.786796  -0.130093   0.177466
H  -0.068851  -1.596860  -0.988676
