14
butane_opt
C  -3.939479   0.263606  -0.030160
C  -2.696527  -0.619861   0.072125
H  -4.823752  -0.297843   0.000372
H  -3.925049   0.855091  -0.879047
H  -4.057720   0.986210   0.864848
C  -1.392497   0.186428   0.066002
H  -2.679607  -1.332342  -0.773159
H  -2.771939  -1.203658   0.980031
C  -0.159871  -0.688966   0.000405
H  -1.421044   0.818221   0.891191
H  -1.431244   0.791337  -0.815551
H  -0.058864  -1.386655   0.970734
H   0.734218  -0.095326  -0.202314
H  -0.324380  -1.300213  -0.882396
