14
butane_opt
C  -3.957514   0.255374   0.015931
C  -2.707363  -0.607181   0.032859
H  -4.928837  -0.392878   0.153821
H  -4.023998   1.017905  -0.959523
H  -3.841655   0.789498   0.762667
C  -1.407659   0.204275   0.040152
H  -2.760313  -1.349091  -0.899402
H  -2.696853  -1.182694   0.912401
C  -0.141757  -0.702752   0.019287
H  -1.389071   0.836589   0.866698
H  -1.460152   0.868441  -0.840297
H  -0.067310  -1.362167   0.936123
H   0.757209  -0.110401   0.052035
H  -0.045070  -1.388424  -0.859764
