14
butane_opt
C  -3.931278   0.251946   0.035607
C  -2.709234  -0.590249   0.029692
H  -4.858991  -0.347353  -0.043039
H  -3.938172   0.773252  -0.777696
H  -3.946842   0.984521   0.941583
C  -1.418673   0.193340  -0.014711
H  -2.718756  -1.340896  -0.852774
H  -2.758523  -1.187730   0.896262
C  -0.155017  -0.709633   0.053918
H  -1.401936   0.825206   0.800841
H  -1.386314   0.867752  -0.936212
H  -0.127286  -1.357721   0.980784
H   0.785702  -0.099432  -0.031499
H  -0.103169  -1.334386  -0.781107
