butane_opt
 OpenBabel08242015423D

 14 13  0  0  0  0  0  0  0  0999 V2000
   -3.9329    0.2341   -0.0151 C   0  0  0  0  0  0  0  0  0  0  0  0
   -2.6955   -0.5852    0.0989 C   0  0  0  0  0  0  0  0  0  0  0  0
   -4.8441   -0.3922    0.0234 H   0  0  0  0  0  0  0  0  0  0  0  0
   -3.9486    0.9767   -0.9848 H   0  0  0  0  0  0  0  0  0  0  0  0
   -3.9442    0.8286    0.7540 H   0  0  0  0  0  0  0  0  0  0  0  0
   -1.4169    0.2116    0.0370 C   0  0  0  0  0  0  0  0  0  0  0  0
   -2.7589   -1.2147   -0.7392 H   0  0  0  0  0  0  0  0  0  0  0  0
   -2.7744   -1.2157    1.0012 H   0  0  0  0  0  0  0  0  0  0  0  0
   -0.1627   -0.7177    0.0000 C   0  0  0  0  0  0  0  0  0  0  0  0
   -1.4634    0.8611    0.8641 H   0  0  0  0  0  0  0  0  0  0  0  0
   -1.4143    0.8121   -0.8802 H   0  0  0  0  0  0  0  0  0  0  0  0
   -0.0940   -1.1148    0.7254 H   0  0  0  0  0  0  0  0  0  0  0  0
    0.7868   -0.1301    0.1775 H   0  0  0  0  0  0  0  0  0  0  0  0
   -0.0689   -1.5969   -0.9887 H   0  0  0  0  0  0  0  0  0  0  0  0
  1  3  1  0  0  0  0
  1  2  1  0  0  0  0
  1  5  1  0  0  0  0
  2  8  1  0  0  0  0
  4  1  1  0  0  0  0
  6  2  1  0  0  0  0
  6 10  1  0  0  0  0
  7  2  1  0  0  0  0
  9  6  1  0  0  0  0
  9 13  1  0  0  0  0
  9 12  1  0  0  0  0
 11  6  1  0  0  0  0
 14  9  1  0  0  0  0
M  END
$$$$
