14
butane_opt
C  -3.939047   0.272345   0.050413
C  -2.677213  -0.644348   0.012007
H  -4.787067  -0.221722  -0.097496
H  -3.951982   0.807674  -0.748555
H  -3.997705   1.067906   1.004770
C  -1.399286   0.174379  -0.019298
H  -2.747931  -1.335066  -0.878364
H  -2.637473  -1.286651   0.908900
C  -0.186208  -0.673603   0.064380
H  -1.514216   0.757560   0.777048
H  -1.370576   0.930353  -1.031586
H  -0.180664  -1.343791   1.022211
H   0.800306  -0.030435   0.051450
H  -0.234655  -1.353012  -0.850691
