14
butane_opt
C  -3.983210   0.278780   0.069681
C  -2.697556  -0.631553  -0.039941
H  -4.889744  -0.295532   0.250851
H  -4.187930   0.933112  -0.837630
H  -3.787023   0.959174   0.968826
C  -1.397479   0.172839  -0.051006
H  -2.761007  -1.383052  -0.928250
H  -2.627774  -1.269925   0.826863
C  -0.145074  -0.679040   0.088447
H  -1.378677   0.819488   0.820329
H  -1.278786   0.814414  -0.931502
H  -0.212693  -1.353156   1.049563
H   0.820654  -0.078927   0.127218
H  -0.050741  -1.290046  -0.718045
