butane_opt
 OpenBabel08242015423D

 14 13  0  0  0  0  0  0  0  0999 V2000
   -3.9351    0.2673    0.0374 C   0  0  0  0  0  0  0  0  0  0  0  0
   -2.6938   -0.6127    0.0212 C   0  0  0  0  0  0  0  0  0  0  0  0
   -4.8580   -0.3375   -0.0880 H   0  0  0  0  0  0  0  0  0  0  0  0
   -4.0106    0.7323   -0.7153 H   0  0  0  0  0  0  0  0  0  0  0  0
   -3.9547    1.0668    0.9753 H   0  0  0  0  0  0  0  0  0  0  0  0
   -1.4038    0.1777   -0.0262 C   0  0  0  0  0  0  0  0  0  0  0  0
   -2.7280   -1.3181   -0.8228 H   0  0  0  0  0  0  0  0  0  0  0  0
   -2.6810   -1.2602    0.9332 H   0  0  0  0  0  0  0  0  0  0  0  0
   -0.1656   -0.6943    0.0564 C   0  0  0  0  0  0  0  0  0  0  0  0
   -1.4334    0.8457    0.8011 H   0  0  0  0  0  0  0  0  0  0  0  0
   -1.4122    0.8612   -0.9497 H   0  0  0  0  0  0  0  0  0  0  0  0
   -0.1984   -1.3645    0.9981 H   0  0  0  0  0  0  0  0  0  0  0  0
    0.7733   -0.0616    0.0197 H   0  0  0  0  0  0  0  0  0  0  0  0
   -0.1395   -1.2958   -0.7644 H   0  0  0  0  0  0  0  0  0  0  0  0
  1  5  1  0  0  0  0
  2  1  1  0  0  0  0
  2  8  1  0  0  0  0
  3  1  1  0  0  0  0
  4  1  1  0  0  0  0
  6  2  1  0  0  0  0
  6  9  1  0  0  0  0
  6 10  1  0  0  0  0
  7  2  1  0  0  0  0
  9 12  1  0  0  0  0
 11  6  1  0  0  0  0
 13  9  1  0  0  0  0
 14  9  1  0  0  0  0
M  END
$$$$
