butane_opt
 OpenBabel08242015423D

 14 13  0  0  0  0  0  0  0  0999 V2000
   -3.9335    0.2518    0.0773 C   0  0  0  0  0  0  0  0  0  0  0  0
   -2.7094   -0.5972   -0.0101 C   0  0  0  0  0  0  0  0  0  0  0  0
   -4.8319   -0.3651    0.1422 H   0  0  0  0  0  0  0  0  0  0  0  0
   -3.8542    0.7965   -0.7663 H   0  0  0  0  0  0  0  0  0  0  0  0
   -3.8484    0.8868    0.9659 H   0  0  0  0  0  0  0  0  0  0  0  0
   -1.4265    0.2159   -0.0618 C   0  0  0  0  0  0  0  0  0  0  0  0
   -2.7469   -1.3137   -0.9201 H   0  0  0  0  0  0  0  0  0  0  0  0
   -2.6699   -1.1721    0.8176 H   0  0  0  0  0  0  0  0  0  0  0  0
   -0.1623   -0.7149    0.0864 C   0  0  0  0  0  0  0  0  0  0  0  0
   -1.3842    0.7573    0.7203 H   0  0  0  0  0  0  0  0  0  0  0  0
   -1.3871    0.9512   -1.0510 H   0  0  0  0  0  0  0  0  0  0  0  0
   -0.2631   -1.2597    0.9457 H   0  0  0  0  0  0  0  0  0  0  0  0
    0.7035   -0.1413    0.2732 H   0  0  0  0  0  0  0  0  0  0  0  0
    0.0340   -1.4821   -0.7815 H   0  0  0  0  0  0  0  0  0  0  0  0
  1  3  1  0  0  0  0
  1  5  1  0  0  0  0
  2  1  1  0  0  0  0
  2  8  1  0  0  0  0
  4  1  1  0  0  0  0
  6  2  1  0  0  0  0
  6  9  1  0  0  0  0
  6 10  1  0  0  0  0
  7  2  1  0  0  0  0
  9 13  1  0  0  0  0
  9 12  1  0  0  0  0
 11  6  1  0  0  0  0
 14  9  1  0  0  0  0
M  END
$$$$
