butane_opt
 OpenBabel08242015423D

 14 13  0  0  0  0  0  0  0  0999 V2000
   -3.9298    0.2494   -0.0274 C   0  0  0  0  0  0  0  0  0  0  0  0
   -2.6856   -0.6078    0.1101 C   0  0  0  0  0  0  0  0  0  0  0  0
   -4.9166   -0.3936   -0.2498 H   0  0  0  0  0  0  0  0  0  0  0  0
   -3.7742    0.7766   -0.8623 H   0  0  0  0  0  0  0  0  0  0  0  0
   -4.0798    1.0093    0.8840 H   0  0  0  0  0  0  0  0  0  0  0  0
   -1.4220    0.1999    0.0433 C   0  0  0  0  0  0  0  0  0  0  0  0
   -2.6657   -1.1633   -0.6764 H   0  0  0  0  0  0  0  0  0  0  0  0
   -2.6796   -1.2576    1.0623 H   0  0  0  0  0  0  0  0  0  0  0  0
   -0.1683   -0.7035   -0.0240 C   0  0  0  0  0  0  0  0  0  0  0  0
   -1.4150    0.9722    0.9312 H   0  0  0  0  0  0  0  0  0  0  0  0
   -1.3953    0.7654   -0.8275 H   0  0  0  0  0  0  0  0  0  0  0  0
   -0.1103   -1.3592    0.9167 H   0  0  0  0  0  0  0  0  0  0  0  0
    0.7301   -0.1338   -0.0306 H   0  0  0  0  0  0  0  0  0  0  0  0
   -0.2300   -1.3762   -0.9260 H   0  0  0  0  0  0  0  0  0  0  0  0
  1  2  1  0  0  0  0
  1  5  1  0  0  0  0
  2  8  1  0  0  0  0
  3  1  1  0  0  0  0
  4  1  1  0  0  0  0
  6  2  1  0  0  0  0
  6 10  1  0  0  0  0
  7  2  1  0  0  0  0
  9  6  1  0  0  0  0
  9 12  1  0  0  0  0
 11  6  1  0  0  0  0
 13  9  1  0  0  0  0
 14  9  1  0  0  0  0
M  END
$$$$
