14
butane_opt
C  -3.932489   0.269536   0.051331
C  -2.695212  -0.606315  -0.012769
H  -4.887151  -0.320244   0.288333
H  -4.071504   1.004698  -0.913477
H  -3.807153   0.780096   0.837753
C  -1.409537   0.164673  -0.012524
H  -2.685103  -1.400425  -0.941433
H  -2.592723  -1.175765   0.852885
C  -0.185639  -0.681439   0.079145
H  -1.513439   0.796082   0.780389
H  -1.277330   0.798237  -0.891176
H  -0.138353  -1.249535   0.921817
H   0.736896  -0.091679   0.026684
H  -0.116643  -1.363540  -0.815351
