14
butane_opt
C  -3.949433   0.247667  -0.000006
C  -2.714598  -0.618313   0.075737
H  -4.797658  -0.336481   0.042607
H  -3.885891   0.939136  -0.929132
H  -4.077578   0.880482   0.838295
C  -1.411360   0.223554   0.003064
H  -2.703481  -1.293684  -0.747455
H  -2.709094  -1.262343   0.970948
C  -0.145266  -0.708847   0.020937
H  -1.382213   0.912824   0.887854
H  -1.446008   0.829721  -0.828624
H  -0.108234  -1.217326   0.828440
H   0.787104  -0.100397   0.119310
H  -0.055116  -1.548339  -0.953846
