butane_opt
 OpenBabel08242015423D

 14 13  0  0  0  0  0  0  0  0999 V2000
   -3.9573    0.2818   -0.0380 C   0  0  0  0  0  0  0  0  0  0  0  0
   -2.6838   -0.6290    0.1338 C   0  0  0  0  0  0  0  0  0  0  0  0
   -4.9434   -0.3237   -0.2433 H   0  0  0  0  0  0  0  0  0  0  0  0
   -3.8681    0.8098   -0.9015 H   0  0  0  0  0  0  0  0  0  0  0  0
   -4.1803    1.0408    0.8595 H   0  0  0  0  0  0  0  0  0  0  0  0
   -1.3901    0.1689    0.0568 C   0  0  0  0  0  0  0  0  0  0  0  0
   -2.5660   -1.3419   -0.7432 H   0  0  0  0  0  0  0  0  0  0  0  0
   -2.7235   -1.2972    1.0486 H   0  0  0  0  0  0  0  0  0  0  0  0
   -0.1701   -0.6803   -0.0249 C   0  0  0  0  0  0  0  0  0  0  0  0
   -1.3112    0.8418    0.9172 H   0  0  0  0  0  0  0  0  0  0  0  0
   -1.4396    0.7685   -0.8750 H   0  0  0  0  0  0  0  0  0  0  0  0
   -0.0871   -1.2697    0.8442 H   0  0  0  0  0  0  0  0  0  0  0  0
    0.7916   -0.0330   -0.0499 H   0  0  0  0  0  0  0  0  0  0  0  0
   -0.2757   -1.3658   -0.9288 H   0  0  0  0  0  0  0  0  0  0  0  0
  1  2  1  0  0  0  0
  1  5  1  0  0  0  0
  2  8  1  0  0  0  0
  3  1  1  0  0  0  0
  4  1  1  0  0  0  0
  6  2  1  0  0  0  0
  6 10  1  0  0  0  0
  7  2  1  0  0  0  0
  9  6  1  0  0  0  0
  9 12  1  0  0  0  0
 11  6  1  0  0  0  0
 13  9  1  0  0  0  0
 14  9  1  0  0  0  0
M  END
$$$$
