butane_opt
 OpenBabel08242015423D

 14 13  0  0  0  0  0  0  0  0999 V2000
   -3.9137    0.2413    0.0546 C   0  0  0  0  0  0  0  0  0  0  0  0
   -2.7053   -0.5878   -0.0070 C   0  0  0  0  0  0  0  0  0  0  0  0
   -4.8417   -0.3496    0.0108 H   0  0  0  0  0  0  0  0  0  0  0  0
   -3.9837    0.8239   -0.8218 H   0  0  0  0  0  0  0  0  0  0  0  0
   -3.8618    0.9549    0.9679 H   0  0  0  0  0  0  0  0  0  0  0  0
   -1.4175    0.1914   -0.0066 C   0  0  0  0  0  0  0  0  0  0  0  0
   -2.7597   -1.3372   -0.9204 H   0  0  0  0  0  0  0  0  0  0  0  0
   -2.7222   -1.1741    0.8474 H   0  0  0  0  0  0  0  0  0  0  0  0
   -0.1557   -0.7038    0.0517 C   0  0  0  0  0  0  0  0  0  0  0  0
   -1.4735    0.9207    0.8728 H   0  0  0  0  0  0  0  0  0  0  0  0
   -1.4716    0.8171   -0.9585 H   0  0  0  0  0  0  0  0  0  0  0  0
   -0.1563   -1.5192    1.1116 H   0  0  0  0  0  0  0  0  0  0  0  0
    0.6686   -0.1706   -0.0853 H   0  0  0  0  0  0  0  0  0  0  0  0
   -0.1092   -1.1354   -0.6744 H   0  0  0  0  0  0  0  0  0  0  0  0
  1  5  1  0  0  0  0
  2  6  1  0  0  0  0
  2  1  1  0  0  0  0
  2  8  1  0  0  0  0
  3  1  1  0  0  0  0
  4  1  1  0  0  0  0
  6  9  1  0  0  0  0
  6 10  1  0  0  0  0
  7  2  1  0  0  0  0
  9 12  1  0  0  0  0
 11  6  1  0  0  0  0
 13  9  1  0  0  0  0
 14  9  1  0  0  0  0
M  END
$$$$
