14
butane_opt
C  -3.954835   0.276987   0.051463
C  -2.694524  -0.644511  -0.016828
H  -4.831081  -0.236675   0.174144
H  -4.123061   0.968682  -0.875613
H  -3.955573   0.938205   0.912879
C  -1.380797   0.163763  -0.004262
H  -2.770347  -1.361879  -0.944239
H  -2.725355  -1.186352   0.831056
C  -0.168249  -0.677822   0.087599
H  -1.413668   0.839074   0.811547
H  -1.367996   0.856478  -0.971026
H  -0.086155  -1.342299   0.996319
H   0.814568  -0.041105  -0.125647
H  -0.196026  -1.314737  -0.784234
