14
butane_opt
C  -3.950491   0.274963   0.026288
C  -2.702006  -0.617017   0.038819
H  -4.871461  -0.332965  -0.143737
H  -3.944359   0.714295  -0.776800
H  -4.164945   1.131412   1.042933
C  -1.385699   0.175846  -0.021042
H  -2.860717  -1.287003  -0.793054
H  -2.702963  -1.272207   0.969130
C  -0.146523  -0.691543   0.037873
H  -1.353708   0.824719   0.841007
H  -1.392223   0.790559  -0.921345
H  -0.181523  -1.391440   1.016166
H   0.792692  -0.062358   0.014174
H  -0.121922  -1.290113  -0.768845
