14
butane_opt
C  -3.947917   0.284493   0.055760
C  -2.699185  -0.629623  -0.031685
H  -4.815668  -0.286267   0.002683
H  -4.060584   0.784994  -0.759762
H  -3.934306   1.066794   1.057383
C  -1.387220   0.160982  -0.018210
H  -2.654249  -1.378423  -0.904412
H  -2.656371  -1.255869   0.844510
C  -0.166177  -0.685981   0.086683
H  -1.421189   0.879534   0.858801
H  -1.322365   0.781423  -0.945570
H  -0.176183  -1.477392   1.120268
H   0.782310  -0.054136  -0.310037
H  -0.351172  -1.072906  -0.608059
