butane_opt
 OpenBabel08242015423D

 14 13  0  0  0  0  0  0  0  0999 V2000
   -3.9381    0.2460    0.0628 C   0  0  0  0  0  0  0  0  0  0  0  0
   -2.6979   -0.6044   -0.0176 C   0  0  0  0  0  0  0  0  0  0  0  0
   -4.8357   -0.3176    0.1519 H   0  0  0  0  0  0  0  0  0  0  0  0
   -3.9691    0.7947   -0.7720 H   0  0  0  0  0  0  0  0  0  0  0  0
   -3.8658    0.9591    0.9672 H   0  0  0  0  0  0  0  0  0  0  0  0
   -1.4049    0.2095   -0.0547 C   0  0  0  0  0  0  0  0  0  0  0  0
   -2.7192   -1.2325   -0.7775 H   0  0  0  0  0  0  0  0  0  0  0  0
   -2.7468   -1.2813    0.9159 H   0  0  0  0  0  0  0  0  0  0  0  0
   -0.1596   -0.7114    0.0822 C   0  0  0  0  0  0  0  0  0  0  0  0
   -1.4880    0.8514    0.7522 H   0  0  0  0  0  0  0  0  0  0  0  0
   -1.4275    0.9123   -0.9871 H   0  0  0  0  0  0  0  0  0  0  0  0
   -0.2811   -1.2258    0.8782 H   0  0  0  0  0  0  0  0  0  0  0  0
    0.7383   -0.1511    0.2601 H   0  0  0  0  0  0  0  0  0  0  0  0
   -0.0192   -1.4628   -0.8197 H   0  0  0  0  0  0  0  0  0  0  0  0
  1  3  1  0  0  0  0
  1  5  1  0  0  0  0
  2  1  1  0  0  0  0
  2  8  1  0  0  0  0
  4  1  1  0  0  0  0
  6  2  1  0  0  0  0
  6  9  1  0  0  0  0
  6 10  1  0  0  0  0
  7  2  1  0  0  0  0
  9 13  1  0  0  0  0
  9 12  1  0  0  0  0
 11  6  1  0  0  0  0
 14  9  1  0  0  0  0
M  END
$$$$
