butane_opt
 OpenBabel08242015423D

 14 13  0  0  0  0  0  0  0  0999 V2000
   -3.9500    0.2756   -0.0241 C   0  0  0  0  0  0  0  0  0  0  0  0
   -2.7092   -0.6275    0.0694 C   0  0  0  0  0  0  0  0  0  0  0  0
   -4.8305   -0.2978    0.2776 H   0  0  0  0  0  0  0  0  0  0  0  0
   -4.0684    1.0878   -1.0840 H   0  0  0  0  0  0  0  0  0  0  0  0
   -3.9240    0.7046    0.6901 H   0  0  0  0  0  0  0  0  0  0  0  0
   -1.3947    0.1972    0.0621 C   0  0  0  0  0  0  0  0  0  0  0  0
   -2.7105   -1.3578   -0.8166 H   0  0  0  0  0  0  0  0  0  0  0  0
   -2.7216   -1.2071    0.9227 H   0  0  0  0  0  0  0  0  0  0  0  0
   -0.1616   -0.7023   -0.0071 C   0  0  0  0  0  0  0  0  0  0  0  0
   -1.2892    0.8704    0.9995 H   0  0  0  0  0  0  0  0  0  0  0  0
   -1.4221    0.7172   -0.7431 H   0  0  0  0  0  0  0  0  0  0  0  0
   -0.1479   -1.2107    0.8357 H   0  0  0  0  0  0  0  0  0  0  0  0
    0.7873   -0.0748   -0.0118 H   0  0  0  0  0  0  0  0  0  0  0  0
   -0.1161   -1.3957   -0.8649 H   0  0  0  0  0  0  0  0  0  0  0  0
  1  2  1  0  0  0  0
  1  3  1  0  0  0  0
  1  5  1  0  0  0  0
  2  8  1  0  0  0  0
  4  1  1  0  0  0  0
  6  2  1  0  0  0  0
  6 10  1  0  0  0  0
  7  2  1  0  0  0  0
  9  6  1  0  0  0  0
  9 12  1  0  0  0  0
 11  6  1  0  0  0  0
 13  9  1  0  0  0  0
 14  9  1  0  0  0  0
M  END
$$$$
