butane_opt
 OpenBabel08242015423D

 14 13  0  0  0  0  0  0  0  0999 V2000
   -3.9267    0.2842   -0.0459 C   0  0  0  0  0  0  0  0  0  0  0  0
   -2.6907   -0.6137    0.1161 C   0  0  0  0  0  0  0  0  0  0  0  0
   -4.8862   -0.3632   -0.1401 H   0  0  0  0  0  0  0  0  0  0  0  0
   -3.7868    0.8218   -0.9085 H   0  0  0  0  0  0  0  0  0  0  0  0
   -4.1328    0.9343    0.8255 H   0  0  0  0  0  0  0  0  0  0  0  0
   -1.4033    0.1480    0.0671 C   0  0  0  0  0  0  0  0  0  0  0  0
   -2.7305   -1.1824   -0.7016 H   0  0  0  0  0  0  0  0  0  0  0  0
   -2.7076   -1.3071    1.0596 H   0  0  0  0  0  0  0  0  0  0  0  0
   -0.1807   -0.6819   -0.0348 C   0  0  0  0  0  0  0  0  0  0  0  0
   -1.3140    0.9347    1.0156 H   0  0  0  0  0  0  0  0  0  0  0  0
   -1.4312    0.7707   -0.8168 H   0  0  0  0  0  0  0  0  0  0  0  0
   -0.1338   -1.2790    0.8394 H   0  0  0  0  0  0  0  0  0  0  0  0
    0.7419   -0.0771   -0.0593 H   0  0  0  0  0  0  0  0  0  0  0  0
   -0.2264   -1.3756   -0.9028 H   0  0  0  0  0  0  0  0  0  0  0  0
  1  2  1  0  0  0  0
  1  5  1  0  0  0  0
  2  8  1  0  0  0  0
  3  1  1  0  0  0  0
  4  1  1  0  0  0  0
  6  2  1  0  0  0  0
  6 10  1  0  0  0  0
  7  2  1  0  0  0  0
  9  6  1  0  0  0  0
  9 12  1  0  0  0  0
 11  6  1  0  0  0  0
 13  9  1  0  0  0  0
 14  9  1  0  0  0  0
M  END
$$$$
