14
butane_opt
C  -3.933074   0.240659  -0.027894
C  -2.704615  -0.590697   0.086926
H  -4.803809  -0.339070   0.071306
H  -3.945455   0.876320  -0.951423
H  -3.946125   0.957737   0.877237
C  -1.395990   0.201103   0.020511
H  -2.712468  -1.187704  -0.726390
H  -2.829988  -1.355733   1.100709
C  -0.162599  -0.705780   0.008050
H  -1.381535   0.900682   0.907176
H  -1.524118   0.822319  -0.823872
H  -0.172489  -1.190734   0.766766
H   0.716367  -0.103120   0.171520
H  -0.064940  -1.597774  -1.012834
