14
butane_opt
C  -3.970246   0.252504   0.077014
C  -2.706554  -0.587535  -0.047068
H  -4.863110  -0.356791   0.274698
H  -4.022963   0.938332  -0.883988
H  -3.808943   0.776895   0.875782
C  -1.409147   0.192140  -0.019221
H  -2.814753  -1.341594  -0.959548
H  -2.692311  -1.191650   0.785582
C  -0.134261  -0.696054   0.090049
H  -1.430083   0.810150   0.772940
H  -1.345075   0.902299  -0.976699
H  -0.014506  -1.377010   1.019148
H   0.724085  -0.148322   0.075482
H  -0.124489  -1.407262  -0.752688
