14
butane_opt
C  -3.938126   0.246038   0.062791
C  -2.697864  -0.604389  -0.017553
H  -4.835662  -0.317576   0.151866
H  -3.969098   0.794725  -0.772008
H  -3.865756   0.959064   0.967165
C  -1.404896   0.209464  -0.054660
H  -2.719206  -1.232481  -0.777523
H  -2.746833  -1.281266   0.915882
C  -0.159611  -0.711388   0.082208
H  -1.487996   0.851362   0.752173
H  -1.427504   0.912335  -0.987116
H  -0.281117  -1.225797   0.878207
H   0.738286  -0.151140   0.260127
H  -0.019218  -1.462803  -0.819685
