14
butane_opt
C  -3.948011   0.245346   0.057840
C  -2.689412  -0.582323  -0.012898
H  -4.867365  -0.350570   0.225711
H  -4.058847   0.903291  -0.828269
H  -3.849915   0.837415   0.917050
C  -1.419150   0.197326  -0.041093
H  -2.766443  -1.363814  -0.975195
H  -2.655318  -1.181719   0.864730
C  -0.160993  -0.708331   0.079144
H  -1.452214   0.874733   0.815244
H  -1.309742   0.776155  -0.904988
H  -0.195289  -1.353887   0.955156
H   0.776397  -0.102998   0.048758
H  -0.024642  -1.323477  -0.686202
