butane_opt
 OpenBabel08242015423D

 14 13  0  0  0  0  0  0  0  0999 V2000
   -3.9702    0.2525    0.0770 C   0  0  0  0  0  0  0  0  0  0  0  0
   -2.7066   -0.5875   -0.0471 C   0  0  0  0  0  0  0  0  0  0  0  0
   -4.8631   -0.3568    0.2747 H   0  0  0  0  0  0  0  0  0  0  0  0
   -4.0230    0.9383   -0.8840 H   0  0  0  0  0  0  0  0  0  0  0  0
   -3.8089    0.7769    0.8758 H   0  0  0  0  0  0  0  0  0  0  0  0
   -1.4091    0.1921   -0.0192 C   0  0  0  0  0  0  0  0  0  0  0  0
   -2.8148   -1.3416   -0.9595 H   0  0  0  0  0  0  0  0  0  0  0  0
   -2.6923   -1.1917    0.7856 H   0  0  0  0  0  0  0  0  0  0  0  0
   -0.1343   -0.6961    0.0900 C   0  0  0  0  0  0  0  0  0  0  0  0
   -1.4301    0.8102    0.7729 H   0  0  0  0  0  0  0  0  0  0  0  0
   -1.3451    0.9023   -0.9767 H   0  0  0  0  0  0  0  0  0  0  0  0
   -0.0145   -1.3770    1.0191 H   0  0  0  0  0  0  0  0  0  0  0  0
    0.7241   -0.1483    0.0755 H   0  0  0  0  0  0  0  0  0  0  0  0
   -0.1245   -1.4073   -0.7527 H   0  0  0  0  0  0  0  0  0  0  0  0
  1  3  1  0  0  0  0
  1  5  1  0  0  0  0
  2  6  1  0  0  0  0
  2  1  1  0  0  0  0
  2  8  1  0  0  0  0
  4  1  1  0  0  0  0
  6  9  1  0  0  0  0
  6 10  1  0  0  0  0
  7  2  1  0  0  0  0
  9 12  1  0  0  0  0
 11  6  1  0  0  0  0
 13  9  1  0  0  0  0
 14  9  1  0  0  0  0
M  END
$$$$
