14
butane_opt
C  -3.950450   0.287593  -0.031162
C  -2.707430  -0.635215   0.123896
H  -4.854842  -0.343442  -0.142223
H  -3.794509   0.893028  -0.961231
H  -4.047280   1.025891   0.839583
C  -1.393276   0.161265   0.054097
H  -2.606247  -1.280318  -0.692483
H  -2.681429  -1.278076   1.012345
C  -0.175560  -0.680378  -0.033897
H  -1.289913   0.819769   0.903686
H  -1.440196   0.758931  -0.867628
H  -0.196992  -1.213934   0.814314
H   0.786037  -0.047157   0.125779
H  -0.189073  -1.397120  -0.937037
