14
butane_opt
C  -3.980041   0.283733  -0.045094
C  -2.686148  -0.644816   0.101131
H  -4.812979  -0.288170  -0.027085
H  -3.988875   0.944952  -0.966151
H  -4.050100   0.916332   0.760008
C  -1.375869   0.163920   0.087824
H  -2.643399  -1.378689  -0.767082
H  -2.728188  -1.240131   0.942973
C  -0.169864  -0.667796  -0.023425
H  -1.322655   0.936140   1.038558
H  -1.416563   0.780312  -0.766631
H  -0.022066  -1.409530   0.915813
H   0.729496  -0.100652  -0.264788
H  -0.239435  -1.240098  -0.869144
