butane_opt
 OpenBabel08242015423D

 14 13  0  0  0  0  0  0  0  0999 V2000
   -3.9441    0.2676    0.0704 C   0  0  0  0  0  0  0  0  0  0  0  0
   -2.6754   -0.6169   -0.0282 C   0  0  0  0  0  0  0  0  0  0  0  0
   -4.8683   -0.2968    0.1601 H   0  0  0  0  0  0  0  0  0  0  0  0
   -4.0808    0.8267   -0.7601 H   0  0  0  0  0  0  0  0  0  0  0  0
   -3.7698    1.0227    0.9984 H   0  0  0  0  0  0  0  0  0  0  0  0
   -1.4148    0.1712   -0.0715 C   0  0  0  0  0  0  0  0  0  0  0  0
   -2.8048   -1.3318   -0.8706 H   0  0  0  0  0  0  0  0  0  0  0  0
   -2.6584   -1.2990    0.8977 H   0  0  0  0  0  0  0  0  0  0  0  0
   -0.1738   -0.6709    0.0978 C   0  0  0  0  0  0  0  0  0  0  0  0
   -1.4343    0.7747    0.7313 H   0  0  0  0  0  0  0  0  0  0  0  0
   -1.3422    0.8434   -0.9792 H   0  0  0  0  0  0  0  0  0  0  0  0
   -0.2788   -1.2543    0.9947 H   0  0  0  0  0  0  0  0  0  0  0  0
    0.6919   -0.1059    0.2102 H   0  0  0  0  0  0  0  0  0  0  0  0
    0.0065   -1.4590   -0.7798 H   0  0  0  0  0  0  0  0  0  0  0  0
  1  3  1  0  0  0  0
  1  5  1  0  0  0  0
  2  1  1  0  0  0  0
  2  8  1  0  0  0  0
  4  1  1  0  0  0  0
  6  2  1  0  0  0  0
  6  9  1  0  0  0  0
  6 10  1  0  0  0  0
  7  2  1  0  0  0  0
  9 13  1  0  0  0  0
  9 12  1  0  0  0  0
 11  6  1  0  0  0  0
 14  9  1  0  0  0  0
M  END
$$$$
