14
butane_opt
C  -3.966197   0.241798  -0.024707
C  -2.716200  -0.583141   0.106206
H  -4.876851  -0.383934   0.069853
H  -3.963204   0.974882  -0.976716
H  -3.945294   0.767623   0.726991
C  -1.404190   0.205755   0.038506
H  -2.744325  -1.199420  -0.703394
H  -2.723108  -1.223151   0.963035
C  -0.128737  -0.714415  -0.019090
H  -1.283510   0.859109   0.900085
H  -1.415501   0.840802  -0.833752
H  -0.209259  -1.101947   0.759980
H   0.745271  -0.195046   0.273900
H  -0.008059  -1.627401  -0.990037
