butane_opt
 OpenBabel08242015423D

 14 13  0  0  0  0  0  0  0  0999 V2000
   -3.9647    0.2510    0.0398 C   0  0  0  0  0  0  0  0  0  0  0  0
   -2.7110   -0.5857    0.0400 C   0  0  0  0  0  0  0  0  0  0  0  0
   -4.9094   -0.3547    0.0223 H   0  0  0  0  0  0  0  0  0  0  0  0
   -3.9289    0.8321   -0.8684 H   0  0  0  0  0  0  0  0  0  0  0  0
   -4.0438    0.8666    0.8688 H   0  0  0  0  0  0  0  0  0  0  0  0
   -1.4054    0.1932   -0.0189 C   0  0  0  0  0  0  0  0  0  0  0  0
   -2.6973   -1.3191   -0.8137 H   0  0  0  0  0  0  0  0  0  0  0  0
   -2.6528   -1.2506    0.9116 H   0  0  0  0  0  0  0  0  0  0  0  0
   -0.1346   -0.6954    0.0440 C   0  0  0  0  0  0  0  0  0  0  0  0
   -1.3453    0.8109    0.8109 H   0  0  0  0  0  0  0  0  0  0  0  0
   -1.3888    0.9196   -0.9697 H   0  0  0  0  0  0  0  0  0  0  0  0
   -0.1538   -1.2326    0.8867 H   0  0  0  0  0  0  0  0  0  0  0  0
    0.7535   -0.1669    0.2281 H   0  0  0  0  0  0  0  0  0  0  0  0
   -0.0589   -1.5440   -0.8984 H   0  0  0  0  0  0  0  0  0  0  0  0
  1  2  1  0  0  0  0
  1  5  1  0  0  0  0
  2  8  1  0  0  0  0
  3  1  1  0  0  0  0
  4  1  1  0  0  0  0
  6  2  1  0  0  0  0
  6  9  1  0  0  0  0
  6 10  1  0  0  0  0
  7  2  1  0  0  0  0
  9 13  1  0  0  0  0
  9 12  1  0  0  0  0
 11  6  1  0  0  0  0
 14  9  1  0  0  0  0
M  END
$$$$
