14
butane_opt
C  -3.969585   0.286406   0.062478
C  -2.711922  -0.634463   0.001306
H  -4.845360  -0.299286   0.120715
H  -4.044895   0.853120  -0.802478
H  -4.015915   0.953185   0.931806
C  -1.390153   0.162730  -0.048963
H  -2.692740  -1.317744  -0.892917
H  -2.630306  -1.299345   0.903363
C  -0.151727  -0.667255   0.081137
H  -1.355417   0.744782   0.744754
H  -1.305671   0.908309  -1.028264
H  -0.168249  -1.170819   0.891877
H   0.742573  -0.078697   0.259846
H  -0.035102  -1.532713  -0.842767
