butane_opt
 OpenBabel08242015423D

 14 13  0  0  0  0  0  0  0  0999 V2000
   -3.9535    0.2499    0.0394 C   0  0  0  0  0  0  0  0  0  0  0  0
   -2.7173   -0.5979   -0.0009 C   0  0  0  0  0  0  0  0  0  0  0  0
   -4.8365   -0.2955    0.2846 H   0  0  0  0  0  0  0  0  0  0  0  0
   -4.0349    0.9063   -0.8653 H   0  0  0  0  0  0  0  0  0  0  0  0
   -3.8817    0.8555    0.8542 H   0  0  0  0  0  0  0  0  0  0  0  0
   -1.4019    0.1864   -0.0224 C   0  0  0  0  0  0  0  0  0  0  0  0
   -2.7769   -1.3103   -0.8741 H   0  0  0  0  0  0  0  0  0  0  0  0
   -2.7102   -1.1868    0.9022 H   0  0  0  0  0  0  0  0  0  0  0  0
   -0.1306   -0.6974    0.0559 C   0  0  0  0  0  0  0  0  0  0  0  0
   -1.4817    0.9128    0.8204 H   0  0  0  0  0  0  0  0  0  0  0  0
   -1.4427    0.7491   -0.8487 H   0  0  0  0  0  0  0  0  0  0  0  0
   -0.2002   -1.3364    0.9684 H   0  0  0  0  0  0  0  0  0  0  0  0
    0.7682   -0.1381    0.1333 H   0  0  0  0  0  0  0  0  0  0  0  0
    0.0085   -1.3168   -0.7987 H   0  0  0  0  0  0  0  0  0  0  0  0
  1  3  1  0  0  0  0
  1  5  1  0  0  0  0
  2  1  1  0  0  0  0
  2  8  1  0  0  0  0
  4  1  1  0  0  0  0
  6  2  1  0  0  0  0
  6  9  1  0  0  0  0
  6 10  1  0  0  0  0
  7  2  1  0  0  0  0
  9 13  1  0  0  0  0
  9 12  1  0  0  0  0
 11  6  1  0  0  0  0
 14  9  1  0  0  0  0
M  END
$$$$
