butane_opt
 OpenBabel08242015423D

 14 13  0  0  0  0  0  0  0  0999 V2000
   -3.9862    0.2911    0.0434 C   0  0  0  0  0  0  0  0  0  0  0  0
   -2.6861   -0.6478    0.0050 C   0  0  0  0  0  0  0  0  0  0  0  0
   -4.8840   -0.2847    0.3065 H   0  0  0  0  0  0  0  0  0  0  0  0
   -4.0402    0.9757   -0.8674 H   0  0  0  0  0  0  0  0  0  0  0  0
   -3.8808    0.8262    0.8014 H   0  0  0  0  0  0  0  0  0  0  0  0
   -1.3935    0.1602   -0.0219 C   0  0  0  0  0  0  0  0  0  0  0  0
   -2.7265   -1.3911   -0.9225 H   0  0  0  0  0  0  0  0  0  0  0  0
   -2.6725   -1.1431    0.8036 H   0  0  0  0  0  0  0  0  0  0  0  0
   -0.1505   -0.6713    0.0653 C   0  0  0  0  0  0  0  0  0  0  0  0
   -1.3257    0.7958    0.8521 H   0  0  0  0  0  0  0  0  0  0  0  0
   -1.4186    0.8493   -0.9369 H   0  0  0  0  0  0  0  0  0  0  0  0
   -0.1915   -1.2287    0.9411 H   0  0  0  0  0  0  0  0  0  0  0  0
    0.7723   -0.0673    0.1464 H   0  0  0  0  0  0  0  0  0  0  0  0
   -0.0839   -1.3827   -0.7855 H   0  0  0  0  0  0  0  0  0  0  0  0
  1  3  1  0  0  0  0
  1  5  1  0  0  0  0
  2  1  1  0  0  0  0
  2  8  1  0  0  0  0
  4  1  1  0  0  0  0
  6  2  1  0  0  0  0
  6  9  1  0  0  0  0
  6 10  1  0  0  0  0
  7  2  1  0  0  0  0
  9 13  1  0  0  0  0
  9 12  1  0  0  0  0
 11  6  1  0  0  0  0
 14  9  1  0  0  0  0
M  END
$$$$
