butane_opt
 OpenBabel08242015423D

 14 13  0  0  0  0  0  0  0  0999 V2000
   -3.9565    0.2426    0.0743 C   0  0  0  0  0  0  0  0  0  0  0  0
   -2.7092   -0.5842   -0.0536 C   0  0  0  0  0  0  0  0  0  0  0  0
   -4.9460   -0.4218    0.2616 H   0  0  0  0  0  0  0  0  0  0  0  0
   -4.0849    0.8641   -0.8062 H   0  0  0  0  0  0  0  0  0  0  0  0
   -3.8811    0.9090    0.9417 H   0  0  0  0  0  0  0  0  0  0  0  0
   -1.3968    0.2030   -0.0408 C   0  0  0  0  0  0  0  0  0  0  0  0
   -2.8418   -1.2912   -0.9222 H   0  0  0  0  0  0  0  0  0  0  0  0
   -2.6554   -1.2209    0.8547 H   0  0  0  0  0  0  0  0  0  0  0  0
   -0.1333   -0.7176    0.0972 C   0  0  0  0  0  0  0  0  0  0  0  0
   -1.4717    0.9240    0.7942 H   0  0  0  0  0  0  0  0  0  0  0  0
   -1.3512    0.8998   -0.9587 H   0  0  0  0  0  0  0  0  0  0  0  0
   -0.1332   -1.3780    1.0167 H   0  0  0  0  0  0  0  0  0  0  0  0
    0.7489   -0.2043    0.0518 H   0  0  0  0  0  0  0  0  0  0  0  0
   -0.0330   -1.2974   -0.7166 H   0  0  0  0  0  0  0  0  0  0  0  0
  1  3  1  0  0  0  0
  1  5  1  0  0  0  0
  2  6  1  0  0  0  0
  2  1  1  0  0  0  0
  2  8  1  0  0  0  0
  4  1  1  0  0  0  0
  6  9  1  0  0  0  0
  6 10  1  0  0  0  0
  7  2  1  0  0  0  0
  9 12  1  0  0  0  0
 11  6  1  0  0  0  0
 13  9  1  0  0  0  0
 14  9  1  0  0  0  0
M  END
$$$$
