butane_opt
 OpenBabel08242015423D

 14 13  0  0  0  0  0  0  0  0999 V2000
   -3.9322    0.2764   -0.0117 C   0  0  0  0  0  0  0  0  0  0  0  0
   -2.6914   -0.6305    0.0431 C   0  0  0  0  0  0  0  0  0  0  0  0
   -4.8393   -0.3124    0.1041 H   0  0  0  0  0  0  0  0  0  0  0  0
   -4.0441    0.9221   -0.9467 H   0  0  0  0  0  0  0  0  0  0  0  0
   -3.9131    0.9521    0.8519 H   0  0  0  0  0  0  0  0  0  0  0  0
   -1.4239    0.1713    0.0588 C   0  0  0  0  0  0  0  0  0  0  0  0
   -2.6407   -1.3190   -0.8076 H   0  0  0  0  0  0  0  0  0  0  0  0
   -2.7467   -1.2192    0.9393 H   0  0  0  0  0  0  0  0  0  0  0  0
   -0.1551   -0.6858    0.0118 C   0  0  0  0  0  0  0  0  0  0  0  0
   -1.3853    0.8602    0.9085 H   0  0  0  0  0  0  0  0  0  0  0  0
   -1.3641    0.7069   -0.7881 H   0  0  0  0  0  0  0  0  0  0  0  0
   -0.1669   -1.3824    0.9662 H   0  0  0  0  0  0  0  0  0  0  0  0
    0.7828   -0.0149   -0.2352 H   0  0  0  0  0  0  0  0  0  0  0  0
   -0.2721   -1.2294   -0.7744 H   0  0  0  0  0  0  0  0  0  0  0  0
  1  2  1  0  0  0  0
  1  3  1  0  0  0  0
  1  5  1  0  0  0  0
  2  6  1  0  0  0  0
  2  8  1  0  0  0  0
  4  1  1  0  0  0  0
  6 10  1  0  0  0  0
  7  2  1  0  0  0  0
  9  6  1  0  0  0  0
  9 12  1  0  0  0  0
 11  6  1  0  0  0  0
 13  9  1  0  0  0  0
 14  9  1  0  0  0  0
M  END
$$$$
