14
butane_opt
C  -3.919895   0.266134   0.002349
C  -2.708212  -0.629231   0.047801
H  -4.757212  -0.264500   0.209262
H  -3.899203   1.119230  -1.047900
H  -3.987925   0.763416   0.750143
C  -1.412935   0.175783   0.051936
H  -2.669539  -1.291883  -0.779593
H  -2.735801  -1.183573   0.906023
C  -0.178459  -0.687860   0.008877
H  -1.370418   0.877307   0.927208
H  -1.387220   0.731409  -0.837737
H  -0.139362  -1.232589   0.894759
H   0.751637  -0.061758   0.016009
H  -0.208890  -1.414732  -0.946317
