butane_opt
 OpenBabel08242015423D

 14 13  0  0  0  0  0  0  0  0999 V2000
   -3.9566    0.2529   -0.0237 C   0  0  0  0  0  0  0  0  0  0  0  0
   -2.7134   -0.5972    0.0957 C   0  0  0  0  0  0  0  0  0  0  0  0
   -4.9655   -0.4196   -0.1807 H   0  0  0  0  0  0  0  0  0  0  0  0
   -3.8230    0.8234   -0.9216 H   0  0  0  0  0  0  0  0  0  0  0  0
   -4.0959    0.9972    0.8709 H   0  0  0  0  0  0  0  0  0  0  0  0
   -1.3970    0.2135    0.0511 C   0  0  0  0  0  0  0  0  0  0  0  0
   -2.7245   -1.1700   -0.6569 H   0  0  0  0  0  0  0  0  0  0  0  0
   -2.8421   -1.3340    1.1004 H   0  0  0  0  0  0  0  0  0  0  0  0
   -0.1333   -0.7220   -0.0058 C   0  0  0  0  0  0  0  0  0  0  0  0
   -1.3495    0.8889    0.9098 H   0  0  0  0  0  0  0  0  0  0  0  0
   -1.3965    0.8240   -0.8621 H   0  0  0  0  0  0  0  0  0  0  0  0
   -0.0558   -1.2220    0.7747 H   0  0  0  0  0  0  0  0  0  0  0  0
    0.7911   -0.1658   -0.0305 H   0  0  0  0  0  0  0  0  0  0  0  0
   -0.1411   -1.4743   -0.9765 H   0  0  0  0  0  0  0  0  0  0  0  0
  1  2  1  0  0  0  0
  1  5  1  0  0  0  0
  2  8  1  0  0  0  0
  3  1  1  0  0  0  0
  4  1  1  0  0  0  0
  6  2  1  0  0  0  0
  6 10  1  0  0  0  0
  7  2  1  0  0  0  0
  9  6  1  0  0  0  0
  9 12  1  0  0  0  0
 11  6  1  0  0  0  0
 13  9  1  0  0  0  0
 14  9  1  0  0  0  0
M  END
$$$$
