14
butane_opt
C  -3.956579   0.252935  -0.023667
C  -2.713373  -0.597233   0.095659
H  -4.965522  -0.419572  -0.180724
H  -3.822971   0.823415  -0.921566
H  -4.095905   0.997219   0.870929
C  -1.397034   0.213505   0.051112
H  -2.724474  -1.169951  -0.656884
H  -2.842065  -1.334031   1.100410
C  -0.133329  -0.722036  -0.005810
H  -1.349544   0.888902   0.909827
H  -1.396474   0.823983  -0.862138
H  -0.055845  -1.222013   0.774744
H   0.791101  -0.165805  -0.030537
H  -0.141072  -1.474337  -0.976505
