butane_opt
 OpenBabel08242015423D

 14 13  0  0  0  0  0  0  0  0999 V2000
   -3.9199    0.2661    0.0023 C   0  0  0  0  0  0  0  0  0  0  0  0
   -2.7082   -0.6292    0.0478 C   0  0  0  0  0  0  0  0  0  0  0  0
   -4.7572   -0.2645    0.2093 H   0  0  0  0  0  0  0  0  0  0  0  0
   -3.8992    1.1192   -1.0479 H   0  0  0  0  0  0  0  0  0  0  0  0
   -3.9879    0.7634    0.7501 H   0  0  0  0  0  0  0  0  0  0  0  0
   -1.4129    0.1758    0.0519 C   0  0  0  0  0  0  0  0  0  0  0  0
   -2.6695   -1.2919   -0.7796 H   0  0  0  0  0  0  0  0  0  0  0  0
   -2.7358   -1.1836    0.9060 H   0  0  0  0  0  0  0  0  0  0  0  0
   -0.1785   -0.6879    0.0089 C   0  0  0  0  0  0  0  0  0  0  0  0
   -1.3704    0.8773    0.9272 H   0  0  0  0  0  0  0  0  0  0  0  0
   -1.3872    0.7314   -0.8377 H   0  0  0  0  0  0  0  0  0  0  0  0
   -0.1394   -1.2326    0.8948 H   0  0  0  0  0  0  0  0  0  0  0  0
    0.7516   -0.0618    0.0160 H   0  0  0  0  0  0  0  0  0  0  0  0
   -0.2089   -1.4147   -0.9463 H   0  0  0  0  0  0  0  0  0  0  0  0
  1  2  1  0  0  0  0
  1  3  1  0  0  0  0
  1  5  1  0  0  0  0
  2  6  1  0  0  0  0
  2  8  1  0  0  0  0
  4  1  1  0  0  0  0
  6 10  1  0  0  0  0
  7  2  1  0  0  0  0
  9 13  1  0  0  0  0
  9  6  1  0  0  0  0
  9 12  1  0  0  0  0
 11  6  1  0  0  0  0
 14  9  1  0  0  0  0
M  END
$$$$
