14
butane_opt
C  -3.934129   0.279298  -0.013737
C  -2.702341  -0.632212   0.090599
H  -4.890628  -0.328935  -0.249731
H  -3.847357   0.739551  -0.812283
H  -4.061809   0.974066   0.850427
C  -1.408044   0.199357   0.055462
H  -2.760754  -1.265050  -0.769176
H  -2.739517  -1.292993   1.016653
C  -0.158748  -0.690676  -0.002868
H  -1.382524   0.833066   0.858061
H  -1.363981   0.883829  -0.893550
H  -0.028719  -1.379633   0.863985
H   0.709675  -0.129394  -0.084758
H  -0.222588  -1.388183  -0.887819
