butane_opt
 OpenBabel08242015423D

 14 13  0  0  0  0  0  0  0  0999 V2000
   -3.9297    0.2783   -0.0334 C   0  0  0  0  0  0  0  0  0  0  0  0
   -2.6919   -0.6146    0.0774 C   0  0  0  0  0  0  0  0  0  0  0  0
   -4.9143   -0.3902   -0.0459 H   0  0  0  0  0  0  0  0  0  0  0  0
   -3.9812    0.9590   -0.9933 H   0  0  0  0  0  0  0  0  0  0  0  0
   -3.9740    0.9259    0.7968 H   0  0  0  0  0  0  0  0  0  0  0  0
   -1.3895    0.1523    0.0850 C   0  0  0  0  0  0  0  0  0  0  0  0
   -2.5753   -1.2497   -0.7310 H   0  0  0  0  0  0  0  0  0  0  0  0
   -2.7986   -1.2736    1.0545 H   0  0  0  0  0  0  0  0  0  0  0  0
   -0.1875   -0.6823   -0.0290 C   0  0  0  0  0  0  0  0  0  0  0  0
   -1.3148    0.9426    1.0223 H   0  0  0  0  0  0  0  0  0  0  0  0
   -1.4638    0.7306   -0.7660 H   0  0  0  0  0  0  0  0  0  0  0  0
   -0.0795   -1.3587    0.9242 H   0  0  0  0  0  0  0  0  0  0  0  0
    0.7715   -0.0845   -0.1821 H   0  0  0  0  0  0  0  0  0  0  0  0
   -0.3014   -1.2814   -0.8350 H   0  0  0  0  0  0  0  0  0  0  0  0
  1  2  1  0  0  0  0
  1  5  1  0  0  0  0
  2  6  1  0  0  0  0
  2  8  1  0  0  0  0
  3  1  1  0  0  0  0
  4  1  1  0  0  0  0
  6 10  1  0  0  0  0
  7  2  1  0  0  0  0
  9  6  1  0  0  0  0
  9 12  1  0  0  0  0
 11  6  1  0  0  0  0
 13  9  1  0  0  0  0
 14  9  1  0  0  0  0
M  END
$$$$
