butane_opt
 OpenBabel08242015423D

 14 13  0  0  0  0  0  0  0  0999 V2000
   -3.9596    0.2533   -0.0212 C   0  0  0  0  0  0  0  0  0  0  0  0
   -2.7000   -0.6195    0.0718 C   0  0  0  0  0  0  0  0  0  0  0  0
   -4.8264   -0.3116    0.2221 H   0  0  0  0  0  0  0  0  0  0  0  0
   -4.0482    1.0464   -1.0259 H   0  0  0  0  0  0  0  0  0  0  0  0
   -3.9091    0.7544    0.7556 H   0  0  0  0  0  0  0  0  0  0  0  0
   -1.3970    0.2145    0.0361 C   0  0  0  0  0  0  0  0  0  0  0  0
   -2.7254   -1.3158   -0.7638 H   0  0  0  0  0  0  0  0  0  0  0  0
   -2.7632   -1.2896    0.9746 H   0  0  0  0  0  0  0  0  0  0  0  0
   -0.1464   -0.6957   -0.0039 C   0  0  0  0  0  0  0  0  0  0  0  0
   -1.4203    1.0165    1.0170 H   0  0  0  0  0  0  0  0  0  0  0  0
   -1.4587    0.7512   -0.7558 H   0  0  0  0  0  0  0  0  0  0  0  0
   -0.2032   -1.3087    0.8655 H   0  0  0  0  0  0  0  0  0  0  0  0
    0.7633   -0.1181    0.0583 H   0  0  0  0  0  0  0  0  0  0  0  0
   -0.0054   -1.5144   -0.9374 H   0  0  0  0  0  0  0  0  0  0  0  0
  1  2  1  0  0  0  0
  1  3  1  0  0  0  0
  1  5  1  0  0  0  0
  2  8  1  0  0  0  0
  4  1  1  0  0  0  0
  6  2  1  0  0  0  0
  6 10  1  0  0  0  0
  7  2  1  0  0  0  0
  9  6  1  0  0  0  0
  9 13  1  0  0  0  0
  9 12  1  0  0  0  0
 11  6  1  0  0  0  0
 14  9  1  0  0  0  0
M  END
$$$$
