butane_opt
 OpenBabel08242015423D

 14 13  0  0  0  0  0  0  0  0999 V2000
   -3.9426    0.2761   -0.0072 C   0  0  0  0  0  0  0  0  0  0  0  0
   -2.7159   -0.6170    0.0685 C   0  0  0  0  0  0  0  0  0  0  0  0
   -4.8654   -0.3605    0.0277 H   0  0  0  0  0  0  0  0  0  0  0  0
   -3.9574    0.8934   -0.8781 H   0  0  0  0  0  0  0  0  0  0  0  0
   -3.8786    0.8719    0.8553 H   0  0  0  0  0  0  0  0  0  0  0  0
   -1.4015    0.1770    0.0193 C   0  0  0  0  0  0  0  0  0  0  0  0
   -2.6175   -1.2340   -0.7427 H   0  0  0  0  0  0  0  0  0  0  0  0
   -2.6987   -1.2507    0.9857 H   0  0  0  0  0  0  0  0  0  0  0  0
   -0.1594   -0.6947    0.0235 C   0  0  0  0  0  0  0  0  0  0  0  0
   -1.3114    0.8373    0.8459 H   0  0  0  0  0  0  0  0  0  0  0  0
   -1.4303    0.8448   -0.9211 H   0  0  0  0  0  0  0  0  0  0  0  0
   -0.2141   -1.1440    0.8010 H   0  0  0  0  0  0  0  0  0  0  0  0
    0.7546   -0.0924    0.1284 H   0  0  0  0  0  0  0  0  0  0  0  0
   -0.1691   -1.5445   -0.9288 H   0  0  0  0  0  0  0  0  0  0  0  0
  1  3  1  0  0  0  0
  1  2  1  0  0  0  0
  1  5  1  0  0  0  0
  2  8  1  0  0  0  0
  4  1  1  0  0  0  0
  6  9  1  0  0  0  0
  6  2  1  0  0  0  0
  6 10  1  0  0  0  0
  7  2  1  0  0  0  0
  9 13  1  0  0  0  0
  9 12  1  0  0  0  0
 11  6  1  0  0  0  0
 14  9  1  0  0  0  0
M  END
$$$$
