butane_opt
 OpenBabel08242015423D

 14 13  0  0  0  0  0  0  0  0999 V2000
   -3.9461    0.2497   -0.0221 C   0  0  0  0  0  0  0  0  0  0  0  0
   -2.6929   -0.5800    0.1259 C   0  0  0  0  0  0  0  0  0  0  0  0
   -4.8915   -0.4455   -0.2753 H   0  0  0  0  0  0  0  0  0  0  0  0
   -3.7772    0.8118   -0.8740 H   0  0  0  0  0  0  0  0  0  0  0  0
   -4.0544    0.9868    0.8822 H   0  0  0  0  0  0  0  0  0  0  0  0
   -1.4008    0.1876    0.0315 C   0  0  0  0  0  0  0  0  0  0  0  0
   -2.7700   -1.2554   -0.7245 H   0  0  0  0  0  0  0  0  0  0  0  0
   -2.7488   -1.2140    0.9853 H   0  0  0  0  0  0  0  0  0  0  0  0
   -0.1681   -0.7100   -0.0129 C   0  0  0  0  0  0  0  0  0  0  0  0
   -1.3937    0.9108    0.9201 H   0  0  0  0  0  0  0  0  0  0  0  0
   -1.3912    0.8334   -0.8728 H   0  0  0  0  0  0  0  0  0  0  0  0
   -0.0917   -1.3107    0.8598 H   0  0  0  0  0  0  0  0  0  0  0  0
    0.7406   -0.1337   -0.0177 H   0  0  0  0  0  0  0  0  0  0  0  0
   -0.1461   -1.4362   -0.9208 H   0  0  0  0  0  0  0  0  0  0  0  0
  1  2  1  0  0  0  0
  1  5  1  0  0  0  0
  2  8  1  0  0  0  0
  3  1  1  0  0  0  0
  4  1  1  0  0  0  0
  6  2  1  0  0  0  0
  6 10  1  0  0  0  0
  7  2  1  0  0  0  0
  9  6  1  0  0  0  0
  9 12  1  0  0  0  0
 11  6  1  0  0  0  0
 13  9  1  0  0  0  0
 14  9  1  0  0  0  0
M  END
$$$$
