butane_opt
 OpenBabel08242015423D

 14 13  0  0  0  0  0  0  0  0999 V2000
   -3.9320    0.2533    0.0458 C   0  0  0  0  0  0  0  0  0  0  0  0
   -2.6944   -0.6086   -0.0092 C   0  0  0  0  0  0  0  0  0  0  0  0
   -4.8636   -0.3653    0.1352 H   0  0  0  0  0  0  0  0  0  0  0  0
   -3.9805    0.8531   -0.8498 H   0  0  0  0  0  0  0  0  0  0  0  0
   -3.8976    0.9457    0.9576 H   0  0  0  0  0  0  0  0  0  0  0  0
   -1.4177    0.2026   -0.0122 C   0  0  0  0  0  0  0  0  0  0  0  0
   -2.7277   -1.2784   -0.8444 H   0  0  0  0  0  0  0  0  0  0  0  0
   -2.6642   -1.2248    0.8550 H   0  0  0  0  0  0  0  0  0  0  0  0
   -0.1647   -0.7030    0.0640 C   0  0  0  0  0  0  0  0  0  0  0  0
   -1.4583    0.8794    0.8154 H   0  0  0  0  0  0  0  0  0  0  0  0
   -1.3229    0.8117   -0.9191 H   0  0  0  0  0  0  0  0  0  0  0  0
   -0.1407   -1.3875    1.0052 H   0  0  0  0  0  0  0  0  0  0  0  0
    0.7080   -0.1459   -0.0116 H   0  0  0  0  0  0  0  0  0  0  0  0
   -0.1574   -1.2949   -0.7561 H   0  0  0  0  0  0  0  0  0  0  0  0
  1  3  1  0  0  0  0
  1  5  1  0  0  0  0
  2  1  1  0  0  0  0
  2  8  1  0  0  0  0
  4  1  1  0  0  0  0
  6  2  1  0  0  0  0
  6  9  1  0  0  0  0
  6 10  1  0  0  0  0
  7  2  1  0  0  0  0
  9 12  1  0  0  0  0
 11  6  1  0  0  0  0
 13  9  1  0  0  0  0
 14  9  1  0  0  0  0
M  END
$$$$
