butane_opt
 OpenBabel08242015423D

 14 13  0  0  0  0  0  0  0  0999 V2000
   -3.9498    0.2902   -0.0125 C   0  0  0  0  0  0  0  0  0  0  0  0
   -2.7123   -0.6323    0.1002 C   0  0  0  0  0  0  0  0  0  0  0  0
   -4.8602   -0.3313   -0.2723 H   0  0  0  0  0  0  0  0  0  0  0  0
   -3.8695    0.7887   -0.8148 H   0  0  0  0  0  0  0  0  0  0  0  0
   -4.1244    1.0598    0.8926 H   0  0  0  0  0  0  0  0  0  0  0  0
   -1.3834    0.1701    0.0143 C   0  0  0  0  0  0  0  0  0  0  0  0
   -2.6879   -1.2798   -0.7210 H   0  0  0  0  0  0  0  0  0  0  0  0
   -2.6588   -1.3515    1.0156 H   0  0  0  0  0  0  0  0  0  0  0  0
   -0.1692   -0.6862    0.0033 C   0  0  0  0  0  0  0  0  0  0  0  0
   -1.2969    0.8736    0.8991 H   0  0  0  0  0  0  0  0  0  0  0  0
   -1.4290    0.7358   -0.7974 H   0  0  0  0  0  0  0  0  0  0  0  0
   -0.1073   -1.2680    0.8582 H   0  0  0  0  0  0  0  0  0  0  0  0
    0.8011   -0.0769   -0.0397 H   0  0  0  0  0  0  0  0  0  0  0  0
   -0.2164   -1.3151   -0.8350 H   0  0  0  0  0  0  0  0  0  0  0  0
  1  2  1  0  0  0  0
  1  5  1  0  0  0  0
  2  8  1  0  0  0  0
  3  1  1  0  0  0  0
  4  1  1  0  0  0  0
  6  2  1  0  0  0  0
  6 10  1  0  0  0  0
  7  2  1  0  0  0  0
  9  6  1  0  0  0  0
  9 12  1  0  0  0  0
 11  6  1  0  0  0  0
 13  9  1  0  0  0  0
 14  9  1  0  0  0  0
M  END
$$$$
