butane_opt
 OpenBabel08242015423D

 14 13  0  0  0  0  0  0  0  0999 V2000
   -3.9493    0.2673   -0.0305 C   0  0  0  0  0  0  0  0  0  0  0  0
   -2.7156   -0.6245    0.0742 C   0  0  0  0  0  0  0  0  0  0  0  0
   -4.7713   -0.2662    0.0252 H   0  0  0  0  0  0  0  0  0  0  0  0
   -3.9715    0.8732   -0.9174 H   0  0  0  0  0  0  0  0  0  0  0  0
   -4.0861    0.9107    0.8219 H   0  0  0  0  0  0  0  0  0  0  0  0
   -1.3916    0.1950    0.0629 C   0  0  0  0  0  0  0  0  0  0  0  0
   -2.6876   -1.3047   -0.7460 H   0  0  0  0  0  0  0  0  0  0  0  0
   -2.7453   -1.2679    0.9533 H   0  0  0  0  0  0  0  0  0  0  0  0
   -0.1523   -0.6963   -0.0026 C   0  0  0  0  0  0  0  0  0  0  0  0
   -1.3717    0.9139    0.9712 H   0  0  0  0  0  0  0  0  0  0  0  0
   -1.3286    0.7776   -0.7691 H   0  0  0  0  0  0  0  0  0  0  0  0
   -0.0275   -1.3738    0.9533 H   0  0  0  0  0  0  0  0  0  0  0  0
    0.7614   -0.1195   -0.2118 H   0  0  0  0  0  0  0  0  0  0  0  0
   -0.2885   -1.3050   -0.8868 H   0  0  0  0  0  0  0  0  0  0  0  0
  1  3  1  0  0  0  0
  1  2  1  0  0  0  0
  1  5  1  0  0  0  0
  2  8  1  0  0  0  0
  4  1  1  0  0  0  0
  6  2  1  0  0  0  0
  6 10  1  0  0  0  0
  7  2  1  0  0  0  0
  9  6  1  0  0  0  0
  9 12  1  0  0  0  0
 11  6  1  0  0  0  0
 13  9  1  0  0  0  0
 14  9  1  0  0  0  0
M  END
$$$$
