14
butane_opt
C  -3.946533   0.294264   0.051466
C  -2.695948  -0.655169   0.019584
H  -4.788302  -0.284137  -0.093414
H  -4.026865   0.629874  -0.643322
H  -4.103379   1.221640   1.062999
C  -1.398981   0.162045  -0.047189
H  -2.743696  -1.366788  -0.881126
H  -2.756435  -1.204674   0.828514
C  -0.155490  -0.669958   0.079060
H  -1.402439   0.704749   0.662305
H  -1.310843   0.910180  -1.013767
H  -0.134670  -1.324696   1.023969
H   0.745380  -0.081960   0.004970
H  -0.144924  -1.248957  -0.700720
