14
butane_opt
C  -3.946066   0.249729  -0.022130
C  -2.692892  -0.580024   0.125885
H  -4.891462  -0.445533  -0.275255
H  -3.777171   0.811773  -0.874039
H  -4.054356   0.986801   0.882248
C  -1.400766   0.187616   0.031548
H  -2.770000  -1.255435  -0.724531
H  -2.748781  -1.213981   0.985303
C  -0.168122  -0.709970  -0.012858
H  -1.393681   0.910770   0.920063
H  -1.391216   0.833392  -0.872752
H  -0.091696  -1.310692   0.859831
H   0.740594  -0.133672  -0.017725
H  -0.146146  -1.436175  -0.920795
