butane_opt
 OpenBabel08242015423D

 14 13  0  0  0  0  0  0  0  0999 V2000
   -3.9740    0.2790    0.0537 C   0  0  0  0  0  0  0  0  0  0  0  0
   -2.6898   -0.6365   -0.0097 C   0  0  0  0  0  0  0  0  0  0  0  0
   -4.8301   -0.3082    0.0044 H   0  0  0  0  0  0  0  0  0  0  0  0
   -4.0019    0.7872   -0.7709 H   0  0  0  0  0  0  0  0  0  0  0  0
   -4.0190    1.1020    0.9896 H   0  0  0  0  0  0  0  0  0  0  0  0
   -1.3799    0.1716   -0.0329 C   0  0  0  0  0  0  0  0  0  0  0  0
   -2.8483   -1.3833   -0.9014 H   0  0  0  0  0  0  0  0  0  0  0  0
   -2.6225   -1.2337    0.8631 H   0  0  0  0  0  0  0  0  0  0  0  0
   -0.1558   -0.6795    0.0704 C   0  0  0  0  0  0  0  0  0  0  0  0
   -1.3580    0.8911    0.8784 H   0  0  0  0  0  0  0  0  0  0  0  0
   -1.3234    0.7912   -0.9363 H   0  0  0  0  0  0  0  0  0  0  0  0
   -0.0910   -1.4591    1.1044 H   0  0  0  0  0  0  0  0  0  0  0  0
    0.6785   -0.1444   -0.1147 H   0  0  0  0  0  0  0  0  0  0  0  0
   -0.2104   -1.1255   -0.6264 H   0  0  0  0  0  0  0  0  0  0  0  0
  1  5  1  0  0  0  0
  2  1  1  0  0  0  0
  2  8  1  0  0  0  0
  3  1  1  0  0  0  0
  4  1  1  0  0  0  0
  6  2  1  0  0  0  0
  6  9  1  0  0  0  0
  6 10  1  0  0  0  0
  7  2  1  0  0  0  0
  9 12  1  0  0  0  0
 11  6  1  0  0  0  0
 13  9  1  0  0  0  0
 14  9  1  0  0  0  0
M  END
$$$$
