butane_opt
 OpenBabel08242015423D

 14 13  0  0  0  0  0  0  0  0999 V2000
   -3.9222    0.2812    0.0224 C   0  0  0  0  0  0  0  0  0  0  0  0
   -2.6762   -0.6488    0.0580 C   0  0  0  0  0  0  0  0  0  0  0  0
   -4.8232   -0.2990    0.0041 H   0  0  0  0  0  0  0  0  0  0  0  0
   -4.0087    0.9396   -0.9274 H   0  0  0  0  0  0  0  0  0  0  0  0
   -4.0212    0.9433    0.8541 H   0  0  0  0  0  0  0  0  0  0  0  0
   -1.4228    0.1667   -0.0163 C   0  0  0  0  0  0  0  0  0  0  0  0
   -2.7149   -1.2484   -0.7581 H   0  0  0  0  0  0  0  0  0  0  0  0
   -2.6458   -1.3206    0.9887 H   0  0  0  0  0  0  0  0  0  0  0  0
   -0.1814   -0.6828    0.0240 C   0  0  0  0  0  0  0  0  0  0  0  0
   -1.3819    0.9163    0.9098 H   0  0  0  0  0  0  0  0  0  0  0  0
   -1.3490    0.8034   -0.8708 H   0  0  0  0  0  0  0  0  0  0  0  0
   -0.3276   -1.1510    0.8682 H   0  0  0  0  0  0  0  0  0  0  0  0
    0.7897   -0.0086    0.2206 H   0  0  0  0  0  0  0  0  0  0  0  0
   -0.1060   -1.4525   -0.9330 H   0  0  0  0  0  0  0  0  0  0  0  0
  1  2  1  0  0  0  0
  1  5  1  0  0  0  0
  2  8  1  0  0  0  0
  3  1  1  0  0  0  0
  4  1  1  0  0  0  0
  6  9  1  0  0  0  0
  6  2  1  0  0  0  0
  6 10  1  0  0  0  0
  7  2  1  0  0  0  0
  9 13  1  0  0  0  0
  9 12  1  0  0  0  0
 11  6  1  0  0  0  0
 14  9  1  0  0  0  0
M  END
$$$$
