butane_opt
 OpenBabel08242015423D

 14 13  0  0  0  0  0  0  0  0999 V2000
   -3.9716    0.2696   -0.0285 C   0  0  0  0  0  0  0  0  0  0  0  0
   -2.7034   -0.6102    0.0746 C   0  0  0  0  0  0  0  0  0  0  0  0
   -4.8222   -0.2544    0.2519 H   0  0  0  0  0  0  0  0  0  0  0  0
   -4.0551    1.1600   -1.0668 H   0  0  0  0  0  0  0  0  0  0  0  0
   -3.9206    0.6982    0.6984 H   0  0  0  0  0  0  0  0  0  0  0  0
   -1.3729    0.1628    0.0579 C   0  0  0  0  0  0  0  0  0  0  0  0
   -2.6874   -1.3161   -0.7909 H   0  0  0  0  0  0  0  0  0  0  0  0
   -2.8190   -1.2931    0.9774 H   0  0  0  0  0  0  0  0  0  0  0  0
   -0.1517   -0.6862   -0.0105 C   0  0  0  0  0  0  0  0  0  0  0  0
   -1.3329    0.9684    1.0119 H   0  0  0  0  0  0  0  0  0  0  0  0
   -1.4652    0.6525   -0.7110 H   0  0  0  0  0  0  0  0  0  0  0  0
   -0.2066   -1.1737    0.8223 H   0  0  0  0  0  0  0  0  0  0  0  0
    0.8017   -0.0958   -0.0041 H   0  0  0  0  0  0  0  0  0  0  0  0
   -0.1304   -1.4245   -0.9090 H   0  0  0  0  0  0  0  0  0  0  0  0
  1  2  1  0  0  0  0
  1  3  1  0  0  0  0
  1  5  1  0  0  0  0
  2  8  1  0  0  0  0
  4  1  1  0  0  0  0
  6  2  1  0  0  0  0
  6 10  1  0  0  0  0
  7  2  1  0  0  0  0
  9 13  1  0  0  0  0
  9  6  1  0  0  0  0
  9 12  1  0  0  0  0
 11  6  1  0  0  0  0
 14  9  1  0  0  0  0
M  END
$$$$
