butane_opt
 OpenBabel08242015423D

 14 13  0  0  0  0  0  0  0  0999 V2000
   -3.9374    0.2607    0.0487 C   0  0  0  0  0  0  0  0  0  0  0  0
   -2.6985   -0.6186    0.0186 C   0  0  0  0  0  0  0  0  0  0  0  0
   -4.8720   -0.3320   -0.0551 H   0  0  0  0  0  0  0  0  0  0  0  0
   -3.9249    0.8404   -0.8453 H   0  0  0  0  0  0  0  0  0  0  0  0
   -3.9327    1.0190    0.9468 H   0  0  0  0  0  0  0  0  0  0  0  0
   -1.4057    0.1907   -0.0202 C   0  0  0  0  0  0  0  0  0  0  0  0
   -2.7347   -1.3198   -0.8389 H   0  0  0  0  0  0  0  0  0  0  0  0
   -2.6735   -1.2592    0.9170 H   0  0  0  0  0  0  0  0  0  0  0  0
   -0.1687   -0.6952    0.0488 C   0  0  0  0  0  0  0  0  0  0  0  0
   -1.4283    0.8894    0.8337 H   0  0  0  0  0  0  0  0  0  0  0  0
   -1.3788    0.8324   -0.9208 H   0  0  0  0  0  0  0  0  0  0  0  0
   -0.1757   -1.3695    0.9765 H   0  0  0  0  0  0  0  0  0  0  0  0
    0.7196   -0.1127    0.0276 H   0  0  0  0  0  0  0  0  0  0  0  0
   -0.0981   -1.3128   -0.7490 H   0  0  0  0  0  0  0  0  0  0  0  0
  1  5  1  0  0  0  0
  2  1  1  0  0  0  0
  2  8  1  0  0  0  0
  3  1  1  0  0  0  0
  4  1  1  0  0  0  0
  6  2  1  0  0  0  0
  6  9  1  0  0  0  0
  6 10  1  0  0  0  0
  7  2  1  0  0  0  0
  9 12  1  0  0  0  0
 11  6  1  0  0  0  0
 13  9  1  0  0  0  0
 14  9  1  0  0  0  0
M  END
$$$$
