butane_opt
 OpenBabel08242015423D

 14 13  0  0  0  0  0  0  0  0999 V2000
   -3.9458    0.2777    0.0076 C   0  0  0  0  0  0  0  0  0  0  0  0
   -2.6803   -0.6197    0.0342 C   0  0  0  0  0  0  0  0  0  0  0  0
   -4.8692   -0.3553    0.2340 H   0  0  0  0  0  0  0  0  0  0  0  0
   -4.0409    1.0939   -1.0347 H   0  0  0  0  0  0  0  0  0  0  0  0
   -3.8767    0.8022    0.7888 H   0  0  0  0  0  0  0  0  0  0  0  0
   -1.4120    0.1508    0.0296 C   0  0  0  0  0  0  0  0  0  0  0  0
   -2.5934   -1.2922   -0.7950 H   0  0  0  0  0  0  0  0  0  0  0  0
   -2.7109   -1.2941    0.9944 H   0  0  0  0  0  0  0  0  0  0  0  0
   -0.1765   -0.6749    0.0097 C   0  0  0  0  0  0  0  0  0  0  0  0
   -1.2913    0.9194    0.9560 H   0  0  0  0  0  0  0  0  0  0  0  0
   -1.3896    0.7158   -0.8230 H   0  0  0  0  0  0  0  0  0  0  0  0
   -0.2428   -1.2283    0.8705 H   0  0  0  0  0  0  0  0  0  0  0  0
    0.7455   -0.0849    0.1783 H   0  0  0  0  0  0  0  0  0  0  0  0
   -0.1718   -1.3523   -0.9122 H   0  0  0  0  0  0  0  0  0  0  0  0
  1  2  1  0  0  0  0
  1  3  1  0  0  0  0
  1  5  1  0  0  0  0
  2  8  1  0  0  0  0
  4  1  1  0  0  0  0
  6  2  1  0  0  0  0
  6 10  1  0  0  0  0
  7  2  1  0  0  0  0
  9  6  1  0  0  0  0
  9 13  1  0  0  0  0
  9 12  1  0  0  0  0
 11  6  1  0  0  0  0
 14  9  1  0  0  0  0
M  END
$$$$
