butane_opt
 OpenBabel08242015423D

 14 13  0  0  0  0  0  0  0  0999 V2000
   -3.9552    0.2562   -0.0346 C   0  0  0  0  0  0  0  0  0  0  0  0
   -2.7116   -0.5980    0.0858 C   0  0  0  0  0  0  0  0  0  0  0  0
   -4.9130   -0.4077   -0.0818 H   0  0  0  0  0  0  0  0  0  0  0  0
   -3.9468    0.7002   -0.7894 H   0  0  0  0  0  0  0  0  0  0  0  0
   -4.0454    1.0396    0.8738 H   0  0  0  0  0  0  0  0  0  0  0  0
   -1.3950    0.2082    0.0423 C   0  0  0  0  0  0  0  0  0  0  0  0
   -2.7322   -1.2208   -0.7288 H   0  0  0  0  0  0  0  0  0  0  0  0
   -2.7680   -1.2931    1.0265 H   0  0  0  0  0  0  0  0  0  0  0  0
   -0.1301   -0.7127    0.0032 C   0  0  0  0  0  0  0  0  0  0  0  0
   -1.4020    0.8639    0.8697 H   0  0  0  0  0  0  0  0  0  0  0  0
   -1.4622    0.8296   -0.7834 H   0  0  0  0  0  0  0  0  0  0  0  0
   -0.0196   -1.3561    0.8538 H   0  0  0  0  0  0  0  0  0  0  0  0
    0.7695   -0.1568   -0.0832 H   0  0  0  0  0  0  0  0  0  0  0  0
   -0.1838   -1.3285   -0.8565 H   0  0  0  0  0  0  0  0  0  0  0  0
  1  2  1  0  0  0  0
  1  5  1  0  0  0  0
  2  8  1  0  0  0  0
  3  1  1  0  0  0  0
  4  1  1  0  0  0  0
  6  2  1  0  0  0  0
  6 10  1  0  0  0  0
  7  2  1  0  0  0  0
  9  6  1  0  0  0  0
  9 12  1  0  0  0  0
 11  6  1  0  0  0  0
 13  9  1  0  0  0  0
 14  9  1  0  0  0  0
M  END
$$$$
