butane_opt
 OpenBabel08242015423D

 14 13  0  0  0  0  0  0  0  0999 V2000
   -3.9265    0.2631    0.0690 C   0  0  0  0  0  0  0  0  0  0  0  0
   -2.6932   -0.6065   -0.0090 C   0  0  0  0  0  0  0  0  0  0  0  0
   -4.8650   -0.3791    0.1053 H   0  0  0  0  0  0  0  0  0  0  0  0
   -3.9682    0.7769   -0.7547 H   0  0  0  0  0  0  0  0  0  0  0  0
   -3.8505    0.9531    0.9680 H   0  0  0  0  0  0  0  0  0  0  0  0
   -1.3982    0.1959   -0.0676 C   0  0  0  0  0  0  0  0  0  0  0  0
   -2.7909   -1.2653   -0.8794 H   0  0  0  0  0  0  0  0  0  0  0  0
   -2.6642   -1.2031    0.8523 H   0  0  0  0  0  0  0  0  0  0  0  0
   -0.1936   -0.7127    0.0922 C   0  0  0  0  0  0  0  0  0  0  0  0
   -1.4901    0.8806    0.8194 H   0  0  0  0  0  0  0  0  0  0  0  0
   -1.3418    0.8746   -1.0139 H   0  0  0  0  0  0  0  0  0  0  0  0
   -0.2609   -1.2954    0.9609 H   0  0  0  0  0  0  0  0  0  0  0  0
    0.7599   -0.1233    0.1423 H   0  0  0  0  0  0  0  0  0  0  0  0
   -0.0165   -1.3736   -0.7805 H   0  0  0  0  0  0  0  0  0  0  0  0
  1  3  1  0  0  0  0
  1  5  1  0  0  0  0
  2  1  1  0  0  0  0
  2  8  1  0  0  0  0
  4  1  1  0  0  0  0
  6  2  1  0  0  0  0
  6  9  1  0  0  0  0
  6 10  1  0  0  0  0
  7  2  1  0  0  0  0
  9 13  1  0  0  0  0
  9 12  1  0  0  0  0
 11  6  1  0  0  0  0
 14  9  1  0  0  0  0
M  END
$$$$
