14
butane_opt
C  -3.936664   0.288102   0.060559
C  -2.675891  -0.646002  -0.038279
H  -4.832868  -0.315304   0.019690
H  -4.074492   0.794460  -0.748846
H  -3.944628   1.085293   0.957100
C  -1.408723   0.158696  -0.002438
H  -2.669703  -1.310117  -0.889689
H  -2.692951  -1.270031   0.839553
C  -0.187762  -0.669300   0.070211
H  -1.335957   0.820886   0.842373
H  -1.353780   0.766435  -0.927695
H  -0.052592  -1.495225   1.130225
H   0.684046  -0.078637  -0.205156
H  -0.247754  -1.041359  -0.612631
