butane_opt
 OpenBabel08242015423D

 14 13  0  0  0  0  0  0  0  0999 V2000
   -3.9283    0.2584   -0.0165 C   0  0  0  0  0  0  0  0  0  0  0  0
   -2.7183   -0.6144    0.0792 C   0  0  0  0  0  0  0  0  0  0  0  0
   -4.8350   -0.2690   -0.1325 H   0  0  0  0  0  0  0  0  0  0  0  0
   -3.8885    0.6622   -0.7846 H   0  0  0  0  0  0  0  0  0  0  0  0
   -4.0254    1.1334    0.9832 H   0  0  0  0  0  0  0  0  0  0  0  0
   -1.4028    0.1917    0.0154 C   0  0  0  0  0  0  0  0  0  0  0  0
   -2.6910   -1.2144   -0.7088 H   0  0  0  0  0  0  0  0  0  0  0  0
   -2.8287   -1.2928    0.9731 H   0  0  0  0  0  0  0  0  0  0  0  0
   -0.1620   -0.6946    0.0115 C   0  0  0  0  0  0  0  0  0  0  0  0
   -1.4120    0.8522    0.8649 H   0  0  0  0  0  0  0  0  0  0  0  0
   -1.4441    0.8136   -0.8444 H   0  0  0  0  0  0  0  0  0  0  0  0
   -0.0559   -1.3808    0.9620 H   0  0  0  0  0  0  0  0  0  0  0  0
    0.7796   -0.0907   -0.0809 H   0  0  0  0  0  0  0  0  0  0  0  0
   -0.1056   -1.3735   -0.8386 H   0  0  0  0  0  0  0  0  0  0  0  0
  1  2  1  0  0  0  0
  1  5  1  0  0  0  0
  2  8  1  0  0  0  0
  3  1  1  0  0  0  0
  4  1  1  0  0  0  0
  6  2  1  0  0  0  0
  6 10  1  0  0  0  0
  7  2  1  0  0  0  0
  9  6  1  0  0  0  0
  9 12  1  0  0  0  0
 11  6  1  0  0  0  0
 13  9  1  0  0  0  0
 14  9  1  0  0  0  0
M  END
$$$$
