14
butane_opt
C  -3.927762   0.238234  -0.001708
C  -2.684246  -0.587115   0.078182
H  -4.887995  -0.381818   0.028398
H  -3.904824   0.871694  -0.921499
H  -3.947063   0.856025   0.824098
C  -1.419512   0.206402   0.026525
H  -2.744348  -1.204019  -0.789523
H  -2.717221  -1.194650   0.964472
C  -0.168271  -0.700179   0.001188
H  -1.346904   0.815355   0.836301
H  -1.467728   0.873893  -0.897292
H  -0.197794  -1.281248   0.872882
H   0.695744  -0.198565   0.258452
H  -0.091211  -1.542348  -0.988574
