butane_opt
 OpenBabel08242015423D

 14 13  0  0  0  0  0  0  0  0999 V2000
   -3.9348    0.2366    0.0227 C   0  0  0  0  0  0  0  0  0  0  0  0
   -2.6964   -0.5963    0.0314 C   0  0  0  0  0  0  0  0  0  0  0  0
   -4.8364   -0.3490    0.2269 H   0  0  0  0  0  0  0  0  0  0  0  0
   -4.0271    1.1115   -1.0072 H   0  0  0  0  0  0  0  0  0  0  0  0
   -3.9428    0.7341    0.7802 H   0  0  0  0  0  0  0  0  0  0  0  0
   -1.4175    0.2145    0.0248 C   0  0  0  0  0  0  0  0  0  0  0  0
   -2.8106   -1.3370   -0.8909 H   0  0  0  0  0  0  0  0  0  0  0  0
   -2.7637   -1.2183    0.9140 H   0  0  0  0  0  0  0  0  0  0  0  0
   -0.1397   -0.7009    0.0221 C   0  0  0  0  0  0  0  0  0  0  0  0
   -1.4750    0.8907    0.8958 H   0  0  0  0  0  0  0  0  0  0  0  0
   -1.3819    0.8153   -0.8772 H   0  0  0  0  0  0  0  0  0  0  0  0
   -0.1290   -1.3037    0.8907 H   0  0  0  0  0  0  0  0  0  0  0  0
    0.7340   -0.1639    0.1441 H   0  0  0  0  0  0  0  0  0  0  0  0
   -0.1184   -1.4927   -0.8757 H   0  0  0  0  0  0  0  0  0  0  0  0
  1  2  1  0  0  0  0
  1  3  1  0  0  0  0
  1  5  1  0  0  0  0
  2  8  1  0  0  0  0
  4  1  1  0  0  0  0
  6  2  1  0  0  0  0
  6 10  1  0  0  0  0
  7  2  1  0  0  0  0
  9  6  1  0  0  0  0
  9 13  1  0  0  0  0
  9 12  1  0  0  0  0
 11  6  1  0  0  0  0
 14  9  1  0  0  0  0
M  END
$$$$
