14
butane_opt
C  -3.966664   0.254777  -0.042565
C  -2.697470  -0.592061   0.082461
H  -4.898113  -0.395615  -0.034249
H  -3.870941   0.769445  -0.880717
H  -4.015317   0.942729   0.856675
C  -1.401778   0.208925   0.069120
H  -2.695606  -1.215599  -0.700434
H  -2.760144  -1.341861   1.100177
C  -0.134694  -0.711097  -0.017445
H  -1.344012   0.878555   0.933486
H  -1.462014   0.803312  -0.822583
H  -0.085455  -1.284032   0.872875
H   0.733540  -0.182449  -0.061046
H  -0.202822  -1.379954  -0.915143
