14
butane_opt
C  -3.926534   0.263067   0.069010
C  -2.693201  -0.606486  -0.009030
H  -4.865015  -0.379150   0.105282
H  -3.968248   0.776922  -0.754718
H  -3.850522   0.953139   0.968050
C  -1.398186   0.195916  -0.067596
H  -2.790883  -1.265292  -0.879438
H  -2.664214  -1.203103   0.852267
C  -0.193587  -0.712729   0.092246
H  -1.490053   0.880616   0.819427
H  -1.341806   0.874591  -1.013851
H  -0.260902  -1.295409   0.960927
H   0.759922  -0.123338   0.142265
H  -0.016522  -1.373551  -0.780516
