14
butane_opt
C  -3.939036   0.281480   0.069268
C  -2.694092  -0.622364  -0.008614
H  -4.844884  -0.257724   0.111194
H  -4.042520   0.818482  -0.775489
H  -3.844691   1.037578   1.026427
C  -1.404265   0.138239  -0.078415
H  -2.768997  -1.270399  -0.842814
H  -2.707713  -1.276639   0.896103
C  -0.167652  -0.679079   0.092564
H  -1.455261   0.836082   0.733860
H  -1.288191   0.838999  -1.017586
H  -0.308205  -1.197060   0.913732
H   0.787543  -0.024286   0.311188
H  -0.101187  -1.395658  -0.812520
