butane_opt
 OpenBabel08242015423D

 14 13  0  0  0  0  0  0  0  0999 V2000
   -3.9484    0.2479    0.0405 C   0  0  0  0  0  0  0  0  0  0  0  0
   -2.7018   -0.5971    0.0141 C   0  0  0  0  0  0  0  0  0  0  0  0
   -4.9205   -0.3911    0.1820 H   0  0  0  0  0  0  0  0  0  0  0  0
   -3.9828    0.8755   -0.8029 H   0  0  0  0  0  0  0  0  0  0  0  0
   -3.8805    0.9020    0.9205 H   0  0  0  0  0  0  0  0  0  0  0  0
   -1.4115    0.1901   -0.0215 C   0  0  0  0  0  0  0  0  0  0  0  0
   -2.7169   -1.2472   -0.8546 H   0  0  0  0  0  0  0  0  0  0  0  0
   -2.7485   -1.1733    0.9102 H   0  0  0  0  0  0  0  0  0  0  0  0
   -0.1373   -0.6988    0.0556 C   0  0  0  0  0  0  0  0  0  0  0  0
   -1.4734    0.7660    0.7207 H   0  0  0  0  0  0  0  0  0  0  0  0
   -1.3626    0.9176   -1.0041 H   0  0  0  0  0  0  0  0  0  0  0  0
   -0.2149   -1.1648    0.8737 H   0  0  0  0  0  0  0  0  0  0  0  0
    0.6579   -0.2139    0.2805 H   0  0  0  0  0  0  0  0  0  0  0  0
    0.0229   -1.4791   -0.8578 H   0  0  0  0  0  0  0  0  0  0  0  0
  1  3  1  0  0  0  0
  1  5  1  0  0  0  0
  2  1  1  0  0  0  0
  2  8  1  0  0  0  0
  4  1  1  0  0  0  0
  6  2  1  0  0  0  0
  6  9  1  0  0  0  0
  6 10  1  0  0  0  0
  7  2  1  0  0  0  0
  9 13  1  0  0  0  0
  9 12  1  0  0  0  0
 11  6  1  0  0  0  0
 14  9  1  0  0  0  0
M  END
$$$$
