butane_opt
 OpenBabel08242015423D

 14 13  0  0  0  0  0  0  0  0999 V2000
   -3.9436    0.2731    0.0651 C   0  0  0  0  0  0  0  0  0  0  0  0
   -2.7097   -0.6250   -0.0264 C   0  0  0  0  0  0  0  0  0  0  0  0
   -4.8840   -0.3317    0.1020 H   0  0  0  0  0  0  0  0  0  0  0  0
   -4.0504    0.8645   -0.7645 H   0  0  0  0  0  0  0  0  0  0  0  0
   -3.9321    1.0409    0.9425 H   0  0  0  0  0  0  0  0  0  0  0  0
   -1.4001    0.1689   -0.0381 C   0  0  0  0  0  0  0  0  0  0  0  0
   -2.7494   -1.3932   -0.9308 H   0  0  0  0  0  0  0  0  0  0  0  0
   -2.6196   -1.2354    0.8098 H   0  0  0  0  0  0  0  0  0  0  0  0
   -0.1463   -0.6914    0.0769 C   0  0  0  0  0  0  0  0  0  0  0  0
   -1.4655    0.9456    0.8572 H   0  0  0  0  0  0  0  0  0  0  0  0
   -1.3500    0.7600   -0.9031 H   0  0  0  0  0  0  0  0  0  0  0  0
   -0.1214   -1.4608    1.1123 H   0  0  0  0  0  0  0  0  0  0  0  0
    0.7753   -0.0800   -0.1042 H   0  0  0  0  0  0  0  0  0  0  0  0
   -0.2238   -1.0871   -0.5855 H   0  0  0  0  0  0  0  0  0  0  0  0
  1  3  1  0  0  0  0
  1  5  1  0  0  0  0
  2  1  1  0  0  0  0
  2  8  1  0  0  0  0
  4  1  1  0  0  0  0
  6  2  1  0  0  0  0
  6  9  1  0  0  0  0
  6 10  1  0  0  0  0
  7  2  1  0  0  0  0
  9 12  1  0  0  0  0
 11  6  1  0  0  0  0
 13  9  1  0  0  0  0
 14  9  1  0  0  0  0
M  END
$$$$
