butane_opt
 OpenBabel08242015423D

 14 13  0  0  0  0  0  0  0  0999 V2000
   -3.9664    0.2774   -0.0551 C   0  0  0  0  0  0  0  0  0  0  0  0
   -2.6904   -0.6267    0.0927 C   0  0  0  0  0  0  0  0  0  0  0  0
   -4.8921   -0.3448    0.0034 H   0  0  0  0  0  0  0  0  0  0  0  0
   -4.0516    0.9186   -0.9580 H   0  0  0  0  0  0  0  0  0  0  0  0
   -4.0255    1.0233    0.8464 H   0  0  0  0  0  0  0  0  0  0  0  0
   -1.3795    0.1583    0.0834 C   0  0  0  0  0  0  0  0  0  0  0  0
   -2.7030   -1.2289   -0.7518 H   0  0  0  0  0  0  0  0  0  0  0  0
   -2.8227   -1.3199    1.0562 H   0  0  0  0  0  0  0  0  0  0  0  0
   -0.1519   -0.6833   -0.0305 C   0  0  0  0  0  0  0  0  0  0  0  0
   -1.2954    0.9354    1.0085 H   0  0  0  0  0  0  0  0  0  0  0  0
   -1.3908    0.7298   -0.7546 H   0  0  0  0  0  0  0  0  0  0  0  0
   -0.0453   -1.3464    0.9318 H   0  0  0  0  0  0  0  0  0  0  0  0
    0.7455   -0.0662   -0.1671 H   0  0  0  0  0  0  0  0  0  0  0  0
   -0.2735   -1.2868   -0.8531 H   0  0  0  0  0  0  0  0  0  0  0  0
  1  3  1  0  0  0  0
  1  2  1  0  0  0  0
  1  5  1  0  0  0  0
  2  8  1  0  0  0  0
  4  1  1  0  0  0  0
  6  2  1  0  0  0  0
  6 10  1  0  0  0  0
  7  2  1  0  0  0  0
  9  6  1  0  0  0  0
  9 12  1  0  0  0  0
 11  6  1  0  0  0  0
 13  9  1  0  0  0  0
 14  9  1  0  0  0  0
M  END
$$$$
