14
butane_opt
C  -3.943569   0.273115   0.065125
C  -2.709739  -0.624969  -0.026388
H  -4.883995  -0.331670   0.101958
H  -4.050444   0.864522  -0.764464
H  -3.932089   1.040870   0.942536
C  -1.400130   0.168908  -0.038110
H  -2.749422  -1.393229  -0.930849
H  -2.619609  -1.235407   0.809791
C  -0.146330  -0.691360   0.076857
H  -1.465548   0.945571   0.857239
H  -1.350029   0.760046  -0.903107
H  -0.121449  -1.460791   1.112257
H   0.775304  -0.079989  -0.104188
H  -0.223756  -1.087089  -0.585537
