14
butane_opt
C  -3.916943   0.270003  -0.014271
C  -2.695672  -0.621522   0.039041
H  -4.795436  -0.348196   0.087424
H  -3.904473   0.853318  -0.921805
H  -3.901519   0.915557   0.809157
C  -1.420390   0.190257   0.077496
H  -2.710579  -1.244266  -0.798773
H  -2.801124  -1.277597   0.957477
C  -0.175753  -0.701060  -0.000040
H  -1.373531   0.939576   0.952479
H  -1.448240   0.810345  -0.834295
H  -0.039790  -1.429307   0.962843
H   0.724709  -0.099493  -0.204455
H  -0.278043  -1.236967  -0.773366
