butane_opt
 OpenBabel08242015423D

 14 13  0  0  0  0  0  0  0  0999 V2000
   -3.9480    0.2896   -0.0245 C   0  0  0  0  0  0  0  0  0  0  0  0
   -2.6919   -0.6270    0.0880 C   0  0  0  0  0  0  0  0  0  0  0  0
   -4.8939   -0.3399   -0.1279 H   0  0  0  0  0  0  0  0  0  0  0  0
   -3.8495    1.0017   -1.0012 H   0  0  0  0  0  0  0  0  0  0  0  0
   -4.0279    0.8618    0.7509 H   0  0  0  0  0  0  0  0  0  0  0  0
   -1.3996    0.1520    0.0940 C   0  0  0  0  0  0  0  0  0  0  0  0
   -2.6771   -1.3077   -0.7796 H   0  0  0  0  0  0  0  0  0  0  0  0
   -2.6919   -1.2983    0.9687 H   0  0  0  0  0  0  0  0  0  0  0  0
   -0.1669   -0.6786   -0.0201 C   0  0  0  0  0  0  0  0  0  0  0  0
   -1.2438    0.9004    0.9789 H   0  0  0  0  0  0  0  0  0  0  0  0
   -1.4223    0.7621   -0.7763 H   0  0  0  0  0  0  0  0  0  0  0  0
   -0.0936   -1.3307    0.8324 H   0  0  0  0  0  0  0  0  0  0  0  0
    0.7444   -0.1003   -0.2221 H   0  0  0  0  0  0  0  0  0  0  0  0
   -0.3833   -1.2499   -0.8353 H   0  0  0  0  0  0  0  0  0  0  0  0
  1  2  1  0  0  0  0
  1  5  1  0  0  0  0
  2  6  1  0  0  0  0
  2  8  1  0  0  0  0
  3  1  1  0  0  0  0
  4  1  1  0  0  0  0
  6 10  1  0  0  0  0
  7  2  1  0  0  0  0
  9  6  1  0  0  0  0
  9 12  1  0  0  0  0
 11  6  1  0  0  0  0
 13  9  1  0  0  0  0
 14  9  1  0  0  0  0
M  END
$$$$
