14
butane_opt
C  -3.921079   0.237998  -0.004048
C  -2.715421  -0.579712   0.021158
H  -4.836696  -0.298647   0.237795
H  -3.976738   1.005774  -1.004410
H  -3.851286   0.732318   0.760989
C  -1.406296   0.191520   0.055235
H  -2.676943  -1.140152  -0.739397
H  -2.725314  -1.250348   0.945366
C  -0.168007  -0.717043   0.013251
H  -1.405699   0.912368   1.011329
H  -1.435624   0.760076  -0.793231
H  -0.096964  -1.279910   0.878996
H   0.754730  -0.111007  -0.040947
H  -0.238537  -1.393136  -0.863277
