14
butane_opt
C  -3.948392   0.247947   0.040479
C  -2.701797  -0.597053   0.014128
H  -4.920484  -0.391131   0.181978
H  -3.982781   0.875457  -0.802869
H  -3.880485   0.901979   0.920515
C  -1.411512   0.190104  -0.021477
H  -2.716912  -1.247157  -0.854574
H  -2.748490  -1.173281   0.910162
C  -0.137254  -0.698806   0.055626
H  -1.473413   0.765986   0.720656
H  -1.362625   0.917589  -1.004091
H  -0.214946  -1.164843   0.873656
H   0.657886  -0.213918   0.280495
H   0.022858  -1.479092  -0.857781
