butane_opt
 OpenBabel08242015423D

 14 13  0  0  0  0  0  0  0  0999 V2000
   -3.9277    0.2685    0.0479 C   0  0  0  0  0  0  0  0  0  0  0  0
   -2.7022   -0.6195    0.0161 C   0  0  0  0  0  0  0  0  0  0  0  0
   -4.8497   -0.3314    0.0498 H   0  0  0  0  0  0  0  0  0  0  0  0
   -3.9858    0.8889   -0.8449 H   0  0  0  0  0  0  0  0  0  0  0  0
   -3.9747    0.9669    0.9261 H   0  0  0  0  0  0  0  0  0  0  0  0
   -1.4049    0.1802   -0.0224 C   0  0  0  0  0  0  0  0  0  0  0  0
   -2.7060   -1.2970   -0.8455 H   0  0  0  0  0  0  0  0  0  0  0  0
   -2.6734   -1.2720    0.8965 H   0  0  0  0  0  0  0  0  0  0  0  0
   -0.1760   -0.6842    0.0625 C   0  0  0  0  0  0  0  0  0  0  0  0
   -1.4163    0.7752    0.7584 H   0  0  0  0  0  0  0  0  0  0  0  0
   -1.3306    0.8592   -0.9402 H   0  0  0  0  0  0  0  0  0  0  0  0
   -0.2005   -1.2304    0.9033 H   0  0  0  0  0  0  0  0  0  0  0  0
    0.7323   -0.1004    0.1084 H   0  0  0  0  0  0  0  0  0  0  0  0
   -0.0857   -1.4705   -0.8321 H   0  0  0  0  0  0  0  0  0  0  0  0
  1  3  1  0  0  0  0
  1  5  1  0  0  0  0
  2  1  1  0  0  0  0
  2  8  1  0  0  0  0
  4  1  1  0  0  0  0
  6  2  1  0  0  0  0
  6  9  1  0  0  0  0
  6 10  1  0  0  0  0
  7  2  1  0  0  0  0
  9 13  1  0  0  0  0
  9 12  1  0  0  0  0
 11  6  1  0  0  0  0
 14  9  1  0  0  0  0
M  END
$$$$
