butane_opt
 OpenBabel08242015423D

 14 13  0  0  0  0  0  0  0  0999 V2000
   -3.9346    0.2566    0.0617 C   0  0  0  0  0  0  0  0  0  0  0  0
   -2.7190   -0.5988    0.0017 C   0  0  0  0  0  0  0  0  0  0  0  0
   -4.9176   -0.4486   -0.2012 H   0  0  0  0  0  0  0  0  0  0  0  0
   -3.9102    0.6083   -0.6295 H   0  0  0  0  0  0  0  0  0  0  0  0
   -3.9078    1.1747    1.0861 H   0  0  0  0  0  0  0  0  0  0  0  0
   -1.3984    0.2037   -0.0508 C   0  0  0  0  0  0  0  0  0  0  0  0
   -2.6667   -1.2304   -0.8046 H   0  0  0  0  0  0  0  0  0  0  0  0
   -2.7748   -1.2443    0.9112 H   0  0  0  0  0  0  0  0  0  0  0  0
   -0.1575   -0.7110    0.0710 C   0  0  0  0  0  0  0  0  0  0  0  0
   -1.4334    0.8552    0.7806 H   0  0  0  0  0  0  0  0  0  0  0  0
   -1.3941    0.9121   -1.0452 H   0  0  0  0  0  0  0  0  0  0  0  0
   -0.1403   -1.4425    1.0700 H   0  0  0  0  0  0  0  0  0  0  0  0
    0.7095   -0.1716   -0.0060 H   0  0  0  0  0  0  0  0  0  0  0  0
   -0.0672   -1.3106   -0.6881 H   0  0  0  0  0  0  0  0  0  0  0  0
  1  5  1  0  0  0  0
  2  1  1  0  0  0  0
  2  8  1  0  0  0  0
  3  1  1  0  0  0  0
  4  1  1  0  0  0  0
  6  2  1  0  0  0  0
  6  9  1  0  0  0  0
  6 10  1  0  0  0  0
  7  2  1  0  0  0  0
  9 12  1  0  0  0  0
 11  6  1  0  0  0  0
 13  9  1  0  0  0  0
 14  9  1  0  0  0  0
M  END
$$$$
