butane_opt
 OpenBabel08242015423D

 14 13  0  0  0  0  0  0  0  0999 V2000
   -3.9526    0.2934    0.0539 C   0  0  0  0  0  0  0  0  0  0  0  0
   -2.6973   -0.6659   -0.0213 C   0  0  0  0  0  0  0  0  0  0  0  0
   -4.8466   -0.2832    0.1072 H   0  0  0  0  0  0  0  0  0  0  0  0
   -4.1051    0.9036   -0.8310 H   0  0  0  0  0  0  0  0  0  0  0  0
   -4.0038    0.9884    0.9243 H   0  0  0  0  0  0  0  0  0  0  0  0
   -1.3889    0.1774   -0.0231 C   0  0  0  0  0  0  0  0  0  0  0  0
   -2.7591   -1.3252   -0.8353 H   0  0  0  0  0  0  0  0  0  0  0  0
   -2.7364   -1.2292    0.8040 H   0  0  0  0  0  0  0  0  0  0  0  0
   -0.1564   -0.6739    0.0753 C   0  0  0  0  0  0  0  0  0  0  0  0
   -1.4146    0.9100    0.9011 H   0  0  0  0  0  0  0  0  0  0  0  0
   -1.3258    0.7427   -0.8511 H   0  0  0  0  0  0  0  0  0  0  0  0
   -0.0854   -1.4400    1.0930 H   0  0  0  0  0  0  0  0  0  0  0  0
    0.8088   -0.0857   -0.1859 H   0  0  0  0  0  0  0  0  0  0  0  0
   -0.2236   -1.2090   -0.6937 H   0  0  0  0  0  0  0  0  0  0  0  0
  1  3  1  0  0  0  0
  1  5  1  0  0  0  0
  2  1  1  0  0  0  0
  2  8  1  0  0  0  0
  4  1  1  0  0  0  0
  6  2  1  0  0  0  0
  6  9  1  0  0  0  0
  6 10  1  0  0  0  0
  7  2  1  0  0  0  0
  9 12  1  0  0  0  0
 11  6  1  0  0  0  0
 13  9  1  0  0  0  0
 14  9  1  0  0  0  0
M  END
$$$$
