butane_opt
 OpenBabel08242015423D

 14 13  0  0  0  0  0  0  0  0999 V2000
   -3.9388    0.2767   -0.0260 C   0  0  0  0  0  0  0  0  0  0  0  0
   -2.6898   -0.6197    0.0516 C   0  0  0  0  0  0  0  0  0  0  0  0
   -4.8391   -0.3388    0.2363 H   0  0  0  0  0  0  0  0  0  0  0  0
   -4.0786    1.0626   -1.0274 H   0  0  0  0  0  0  0  0  0  0  0  0
   -3.8434    0.7618    0.7451 H   0  0  0  0  0  0  0  0  0  0  0  0
   -1.4030    0.1579    0.0718 C   0  0  0  0  0  0  0  0  0  0  0  0
   -2.7317   -1.1772   -0.7229 H   0  0  0  0  0  0  0  0  0  0  0  0
   -2.7367   -1.2796    0.9982 H   0  0  0  0  0  0  0  0  0  0  0  0
   -0.1771   -0.6865   -0.0071 C   0  0  0  0  0  0  0  0  0  0  0  0
   -1.3597    0.8886    0.9351 H   0  0  0  0  0  0  0  0  0  0  0  0
   -1.4167    0.7479   -0.8066 H   0  0  0  0  0  0  0  0  0  0  0  0
   -0.1784   -1.1498    0.8269 H   0  0  0  0  0  0  0  0  0  0  0  0
    0.7802   -0.0610    0.0690 H   0  0  0  0  0  0  0  0  0  0  0  0
   -0.1253   -1.4611   -0.9358 H   0  0  0  0  0  0  0  0  0  0  0  0
  1  2  1  0  0  0  0
  1  3  1  0  0  0  0
  1  5  1  0  0  0  0
  2  6  1  0  0  0  0
  2  8  1  0  0  0  0
  4  1  1  0  0  0  0
  6 10  1  0  0  0  0
  7  2  1  0  0  0  0
  9 13  1  0  0  0  0
  9  6  1  0  0  0  0
  9 12  1  0  0  0  0
 11  6  1  0  0  0  0
 14  9  1  0  0  0  0
M  END
$$$$
