butane_opt
 OpenBabel08242015423D

 14 13  0  0  0  0  0  0  0  0999 V2000
   -3.9324    0.2873   -0.0053 C   0  0  0  0  0  0  0  0  0  0  0  0
   -2.6881   -0.6403    0.0774 C   0  0  0  0  0  0  0  0  0  0  0  0
   -4.8523   -0.3068    0.1440 H   0  0  0  0  0  0  0  0  0  0  0  0
   -4.0086    1.0522   -0.9868 H   0  0  0  0  0  0  0  0  0  0  0  0
   -4.0077    0.8068    0.7397 H   0  0  0  0  0  0  0  0  0  0  0  0
   -1.3913    0.1691    0.0228 C   0  0  0  0  0  0  0  0  0  0  0  0
   -2.7231   -1.3480   -0.7993 H   0  0  0  0  0  0  0  0  0  0  0  0
   -2.5863   -1.2666    0.9572 H   0  0  0  0  0  0  0  0  0  0  0  0
   -0.1971   -0.6771    0.0086 C   0  0  0  0  0  0  0  0  0  0  0  0
   -1.3183    0.8772    0.9164 H   0  0  0  0  0  0  0  0  0  0  0  0
   -1.3813    0.7948   -0.9010 H   0  0  0  0  0  0  0  0  0  0  0  0
   -0.2145   -1.1536    0.8210 H   0  0  0  0  0  0  0  0  0  0  0  0
    0.7806   -0.0186    0.2327 H   0  0  0  0  0  0  0  0  0  0  0  0
   -0.2086   -1.5717   -0.9568 H   0  0  0  0  0  0  0  0  0  0  0  0
  1  2  1  0  0  0  0
  1  3  1  0  0  0  0
  1  5  1  0  0  0  0
  2  8  1  0  0  0  0
  4  1  1  0  0  0  0
  6  2  1  0  0  0  0
  6 10  1  0  0  0  0
  7  2  1  0  0  0  0
  9  6  1  0  0  0  0
  9 13  1  0  0  0  0
  9 12  1  0  0  0  0
 11  6  1  0  0  0  0
 14  9  1  0  0  0  0
M  END
$$$$
