butane_opt
 OpenBabel08242015423D

 14 13  0  0  0  0  0  0  0  0999 V2000
   -3.9300    0.2704   -0.0269 C   0  0  0  0  0  0  0  0  0  0  0  0
   -2.6997   -0.5952    0.0548 C   0  0  0  0  0  0  0  0  0  0  0  0
   -4.9430   -0.4857    0.0416 H   0  0  0  0  0  0  0  0  0  0  0  0
   -3.8522    0.8975   -0.9326 H   0  0  0  0  0  0  0  0  0  0  0  0
   -3.9704    0.8951    0.8054 H   0  0  0  0  0  0  0  0  0  0  0  0
   -1.4112    0.1931    0.0879 C   0  0  0  0  0  0  0  0  0  0  0  0
   -2.7628   -1.2568   -0.8402 H   0  0  0  0  0  0  0  0  0  0  0  0
   -2.7374   -1.2788    0.9936 H   0  0  0  0  0  0  0  0  0  0  0  0
   -0.1615   -0.7056   -0.0082 C   0  0  0  0  0  0  0  0  0  0  0  0
   -1.3700    0.8820    0.9466 H   0  0  0  0  0  0  0  0  0  0  0  0
   -1.4001    0.7677   -0.7572 H   0  0  0  0  0  0  0  0  0  0  0  0
    0.0334   -1.4490    0.9740 H   0  0  0  0  0  0  0  0  0  0  0  0
    0.7350   -0.1134   -0.2737 H   0  0  0  0  0  0  0  0  0  0  0  0
   -0.3165   -1.2862   -0.7994 H   0  0  0  0  0  0  0  0  0  0  0  0
  1  3  1  0  0  0  0
  1  2  1  0  0  0  0
  1  5  1  0  0  0  0
  2  6  1  0  0  0  0
  2  8  1  0  0  0  0
  4  1  1  0  0  0  0
  6 10  1  0  0  0  0
  7  2  1  0  0  0  0
  9  6  1  0  0  0  0
  9 12  1  0  0  0  0
 11  6  1  0  0  0  0
 13  9  1  0  0  0  0
 14  9  1  0  0  0  0
M  END
$$$$
