14
butane_opt
C  -3.960086   0.263588  -0.020280
C  -2.699624  -0.622642   0.096506
H  -4.894670  -0.392322   0.078004
H  -3.931062   0.925776  -0.943650
H  -3.961663   0.901260   0.789685
C  -1.408160   0.215499   0.021319
H  -2.767448  -1.321518  -0.781541
H  -2.733489  -1.293610   1.019524
C  -0.152114  -0.699601  -0.005762
H  -1.325957   0.857821   0.907107
H  -1.448150   0.850371  -0.843046
H  -0.095343  -1.190334   0.815607
H   0.736129  -0.127244   0.238966
H   0.027574  -1.564762  -0.957875
