butane_opt
 OpenBabel08242015423D

 14 13  0  0  0  0  0  0  0  0999 V2000
   -3.9295    0.2609    0.0288 C   0  0  0  0  0  0  0  0  0  0  0  0
   -2.7030   -0.6046    0.0069 C   0  0  0  0  0  0  0  0  0  0  0  0
   -4.8468   -0.3660    0.0287 H   0  0  0  0  0  0  0  0  0  0  0  0
   -3.9657    0.7975   -0.8076 H   0  0  0  0  0  0  0  0  0  0  0  0
   -3.9064    0.9376    0.9178 H   0  0  0  0  0  0  0  0  0  0  0  0
   -1.4058    0.2022    0.0142 C   0  0  0  0  0  0  0  0  0  0  0  0
   -2.7156   -1.2985   -0.8516 H   0  0  0  0  0  0  0  0  0  0  0  0
   -2.7453   -1.2439    0.8987 H   0  0  0  0  0  0  0  0  0  0  0  0
   -0.1663   -0.7027    0.0469 C   0  0  0  0  0  0  0  0  0  0  0  0
   -1.3866    0.8836    0.8697 H   0  0  0  0  0  0  0  0  0  0  0  0
   -1.4177    0.8321   -0.9024 H   0  0  0  0  0  0  0  0  0  0  0  0
   -0.1065   -1.4627    1.0329 H   0  0  0  0  0  0  0  0  0  0  0  0
    0.7034   -0.1436   -0.1502 H   0  0  0  0  0  0  0  0  0  0  0  0
   -0.1783   -1.2766   -0.7416 H   0  0  0  0  0  0  0  0  0  0  0  0
  1  5  1  0  0  0  0
  2  6  1  0  0  0  0
  2  1  1  0  0  0  0
  2  8  1  0  0  0  0
  3  1  1  0  0  0  0
  4  1  1  0  0  0  0
  6  9  1  0  0  0  0
  6 10  1  0  0  0  0
  7  2  1  0  0  0  0
  9 12  1  0  0  0  0
 11  6  1  0  0  0  0
 13  9  1  0  0  0  0
 14  9  1  0  0  0  0
M  END
$$$$
