butane_opt
 OpenBabel08242015423D

 14 13  0  0  0  0  0  0  0  0999 V2000
   -3.9601    0.2636   -0.0203 C   0  0  0  0  0  0  0  0  0  0  0  0
   -2.6996   -0.6226    0.0965 C   0  0  0  0  0  0  0  0  0  0  0  0
   -4.8947   -0.3923    0.0780 H   0  0  0  0  0  0  0  0  0  0  0  0
   -3.9311    0.9258   -0.9436 H   0  0  0  0  0  0  0  0  0  0  0  0
   -3.9617    0.9013    0.7897 H   0  0  0  0  0  0  0  0  0  0  0  0
   -1.4082    0.2155    0.0213 C   0  0  0  0  0  0  0  0  0  0  0  0
   -2.7674   -1.3215   -0.7815 H   0  0  0  0  0  0  0  0  0  0  0  0
   -2.7335   -1.2936    1.0195 H   0  0  0  0  0  0  0  0  0  0  0  0
   -0.1521   -0.6996   -0.0058 C   0  0  0  0  0  0  0  0  0  0  0  0
   -1.3260    0.8578    0.9071 H   0  0  0  0  0  0  0  0  0  0  0  0
   -1.4482    0.8504   -0.8430 H   0  0  0  0  0  0  0  0  0  0  0  0
   -0.0953   -1.1903    0.8156 H   0  0  0  0  0  0  0  0  0  0  0  0
    0.7361   -0.1272    0.2390 H   0  0  0  0  0  0  0  0  0  0  0  0
    0.0276   -1.5648   -0.9579 H   0  0  0  0  0  0  0  0  0  0  0  0
  1  3  1  0  0  0  0
  1  2  1  0  0  0  0
  1  5  1  0  0  0  0
  2  8  1  0  0  0  0
  4  1  1  0  0  0  0
  6  2  1  0  0  0  0
  6 10  1  0  0  0  0
  7  2  1  0  0  0  0
  9  6  1  0  0  0  0
  9 13  1  0  0  0  0
  9 12  1  0  0  0  0
 11  6  1  0  0  0  0
 14  9  1  0  0  0  0
M  END
$$$$
