14
butane_opt
C  -3.938760   0.276679  -0.026041
C  -2.689763  -0.619728   0.051586
H  -4.839058  -0.338775   0.236270
H  -4.078551   1.062623  -1.027411
H  -3.843434   0.761797   0.745109
C  -1.403023   0.157886   0.071812
H  -2.731677  -1.177214  -0.722940
H  -2.736749  -1.279558   0.998221
C  -0.177056  -0.686459  -0.007126
H  -1.359721   0.888633   0.935148
H  -1.416673   0.747918  -0.806610
H  -0.178426  -1.149812   0.826861
H   0.780181  -0.060959   0.068973
H  -0.125289  -1.461099  -0.935817
