butane_opt
 OpenBabel08242015423D

 14 13  0  0  0  0  0  0  0  0999 V2000
   -3.9408    0.2436    0.0430 C   0  0  0  0  0  0  0  0  0  0  0  0
   -2.7107   -0.6139   -0.0082 C   0  0  0  0  0  0  0  0  0  0  0  0
   -4.8457   -0.3186    0.0946 H   0  0  0  0  0  0  0  0  0  0  0  0
   -3.9391    0.7945   -0.8142 H   0  0  0  0  0  0  0  0  0  0  0  0
   -3.9190    1.0145    0.9929 H   0  0  0  0  0  0  0  0  0  0  0  0
   -1.4280    0.2168    0.0048 C   0  0  0  0  0  0  0  0  0  0  0  0
   -2.7682   -1.3583   -0.9042 H   0  0  0  0  0  0  0  0  0  0  0  0
   -2.7090   -1.1738    0.8330 H   0  0  0  0  0  0  0  0  0  0  0  0
   -0.1411   -0.7103    0.0660 C   0  0  0  0  0  0  0  0  0  0  0  0
   -1.4000    0.8577    0.7740 H   0  0  0  0  0  0  0  0  0  0  0  0
   -1.3944    0.9637   -0.9902 H   0  0  0  0  0  0  0  0  0  0  0  0
   -0.0549   -1.4798    1.0368 H   0  0  0  0  0  0  0  0  0  0  0  0
    0.7789   -0.1511   -0.0899 H   0  0  0  0  0  0  0  0  0  0  0  0
   -0.1262   -1.2568   -0.7250 H   0  0  0  0  0  0  0  0  0  0  0  0
  1  3  1  0  0  0  0
  1  5  1  0  0  0  0
  2  6  1  0  0  0  0
  2  1  1  0  0  0  0
  2  8  1  0  0  0  0
  4  1  1  0  0  0  0
  6  9  1  0  0  0  0
  6 10  1  0  0  0  0
  7  2  1  0  0  0  0
  9 12  1  0  0  0  0
 11  6  1  0  0  0  0
 13  9  1  0  0  0  0
 14  9  1  0  0  0  0
M  END
$$$$
