butane_opt
 OpenBabel08242015423D

 14 13  0  0  0  0  0  0  0  0999 V2000
   -3.9628    0.2601    0.0479 C   0  0  0  0  0  0  0  0  0  0  0  0
   -2.7180   -0.6093   -0.0010 C   0  0  0  0  0  0  0  0  0  0  0  0
   -4.9061   -0.3648    0.2203 H   0  0  0  0  0  0  0  0  0  0  0  0
   -3.9837    0.9312   -0.9152 H   0  0  0  0  0  0  0  0  0  0  0  0
   -3.8172    0.8836    0.8739 H   0  0  0  0  0  0  0  0  0  0  0  0
   -1.3883    0.2101   -0.0045 C   0  0  0  0  0  0  0  0  0  0  0  0
   -2.6957   -1.3512   -0.9067 H   0  0  0  0  0  0  0  0  0  0  0  0
   -2.7955   -1.2405    0.8686 H   0  0  0  0  0  0  0  0  0  0  0  0
   -0.1433   -0.7018    0.0585 C   0  0  0  0  0  0  0  0  0  0  0  0
   -1.4289    0.7967    0.8084 H   0  0  0  0  0  0  0  0  0  0  0  0
   -1.3909    0.9066   -0.9429 H   0  0  0  0  0  0  0  0  0  0  0  0
   -0.1158   -1.3339    0.9319 H   0  0  0  0  0  0  0  0  0  0  0  0
    0.7159   -0.1536    0.1154 H   0  0  0  0  0  0  0  0  0  0  0  0
   -0.0625   -1.4496   -0.8197 H   0  0  0  0  0  0  0  0  0  0  0  0
  1  3  1  0  0  0  0
  1  5  1  0  0  0  0
  2  1  1  0  0  0  0
  2  8  1  0  0  0  0
  4  1  1  0  0  0  0
  6  2  1  0  0  0  0
  6  9  1  0  0  0  0
  6 10  1  0  0  0  0
  7  2  1  0  0  0  0
  9 13  1  0  0  0  0
  9 12  1  0  0  0  0
 11  6  1  0  0  0  0
 14  9  1  0  0  0  0
M  END
$$$$
