butane_opt
 OpenBabel08242015423D

 14 13  0  0  0  0  0  0  0  0999 V2000
   -3.9304    0.2484    0.0016 C   0  0  0  0  0  0  0  0  0  0  0  0
   -2.7170   -0.5836    0.0376 C   0  0  0  0  0  0  0  0  0  0  0  0
   -4.8390   -0.3370    0.2420 H   0  0  0  0  0  0  0  0  0  0  0  0
   -3.9306    1.0080   -1.0046 H   0  0  0  0  0  0  0  0  0  0  0  0
   -3.8032    0.6964    0.7007 H   0  0  0  0  0  0  0  0  0  0  0  0
   -1.4251    0.2007    0.0475 C   0  0  0  0  0  0  0  0  0  0  0  0
   -2.6635   -1.2635   -0.7799 H   0  0  0  0  0  0  0  0  0  0  0  0
   -2.7862   -1.2052    0.9122 H   0  0  0  0  0  0  0  0  0  0  0  0
   -0.1498   -0.7183   -0.0009 C   0  0  0  0  0  0  0  0  0  0  0  0
   -1.3715    0.9337    0.9710 H   0  0  0  0  0  0  0  0  0  0  0  0
   -1.4246    0.7332   -0.7557 H   0  0  0  0  0  0  0  0  0  0  0  0
   -0.1264   -1.3374    0.9217 H   0  0  0  0  0  0  0  0  0  0  0  0
    0.7489   -0.0888    0.0323 H   0  0  0  0  0  0  0  0  0  0  0  0
   -0.1657   -1.3712   -0.8405 H   0  0  0  0  0  0  0  0  0  0  0  0
  1  2  1  0  0  0  0
  1  3  1  0  0  0  0
  1  5  1  0  0  0  0
  2  6  1  0  0  0  0
  2  8  1  0  0  0  0
  4  1  1  0  0  0  0
  6 10  1  0  0  0  0
  7  2  1  0  0  0  0
  9 13  1  0  0  0  0
  9  6  1  0  0  0  0
  9 12  1  0  0  0  0
 11  6  1  0  0  0  0
 14  9  1  0  0  0  0
M  END
$$$$
