14
butane_opt
C  -3.931630   0.288795  -0.023587
C  -2.697796  -0.637908   0.058775
H  -4.832011  -0.328956   0.269204
H  -4.065168   1.108919  -1.068444
H  -3.968650   0.783478   0.735140
C  -1.393575   0.163791   0.060922
H  -2.665214  -1.319891  -0.772503
H  -2.623440  -1.297083   0.981880
C  -0.196188  -0.671605  -0.009607
H  -1.275842   0.913298   0.942247
H  -1.389295   0.669754  -0.709542
H  -0.178229  -1.259615   0.855641
H   0.738349  -0.067756   0.065936
H  -0.132087  -1.378637  -0.919464
