butane_opt
 OpenBabel08242015423D

 14 13  0  0  0  0  0  0  0  0999 V2000
   -3.9624    0.2693    0.0236 C   0  0  0  0  0  0  0  0  0  0  0  0
   -2.7023   -0.6182    0.0546 C   0  0  0  0  0  0  0  0  0  0  0  0
   -4.8561   -0.3236   -0.2151 H   0  0  0  0  0  0  0  0  0  0  0  0
   -3.9155    0.7694   -0.7883 H   0  0  0  0  0  0  0  0  0  0  0  0
   -4.1245    1.1842    1.0055 H   0  0  0  0  0  0  0  0  0  0  0  0
   -1.3920    0.1642   -0.0165 C   0  0  0  0  0  0  0  0  0  0  0  0
   -2.7509   -1.2928   -0.7538 H   0  0  0  0  0  0  0  0  0  0  0  0
   -2.7243   -1.2874    0.9742 H   0  0  0  0  0  0  0  0  0  0  0  0
   -0.1464   -0.6897    0.0278 C   0  0  0  0  0  0  0  0  0  0  0  0
   -1.3354    0.8749    0.8822 H   0  0  0  0  0  0  0  0  0  0  0  0
   -1.3072    0.7935   -0.9015 H   0  0  0  0  0  0  0  0  0  0  0  0
   -0.2237   -1.3619    0.9974 H   0  0  0  0  0  0  0  0  0  0  0  0
    0.7776   -0.0448   -0.0538 H   0  0  0  0  0  0  0  0  0  0  0  0
   -0.1201   -1.2928   -0.7703 H   0  0  0  0  0  0  0  0  0  0  0  0
  1  2  1  0  0  0  0
  1  5  1  0  0  0  0
  2  8  1  0  0  0  0
  3  1  1  0  0  0  0
  4  1  1  0  0  0  0
  6  9  1  0  0  0  0
  6  2  1  0  0  0  0
  6 10  1  0  0  0  0
  7  2  1  0  0  0  0
  9 12  1  0  0  0  0
 11  6  1  0  0  0  0
 13  9  1  0  0  0  0
 14  9  1  0  0  0  0
M  END
$$$$
