butane_opt
 OpenBabel08242015423D

 14 13  0  0  0  0  0  0  0  0999 V2000
   -3.9746    0.2886    0.0707 C   0  0  0  0  0  0  0  0  0  0  0  0
   -2.6932   -0.6491    0.0035 C   0  0  0  0  0  0  0  0  0  0  0  0
   -4.8296   -0.2801    0.0590 H   0  0  0  0  0  0  0  0  0  0  0  0
   -4.0382    0.9626   -0.8465 H   0  0  0  0  0  0  0  0  0  0  0  0
   -3.9435    0.9412    0.9565 H   0  0  0  0  0  0  0  0  0  0  0  0
   -1.3779    0.1820   -0.0649 C   0  0  0  0  0  0  0  0  0  0  0  0
   -2.8085   -1.3460   -0.8381 H   0  0  0  0  0  0  0  0  0  0  0  0
   -2.6499   -1.2625    0.9091 H   0  0  0  0  0  0  0  0  0  0  0  0
   -0.1652   -0.6788    0.0725 C   0  0  0  0  0  0  0  0  0  0  0  0
   -1.4201    0.7911    0.7669 H   0  0  0  0  0  0  0  0  0  0  0  0
   -1.2624    0.7432   -0.9531 H   0  0  0  0  0  0  0  0  0  0  0  0
   -0.3076   -1.2187    0.9202 H   0  0  0  0  0  0  0  0  0  0  0  0
    0.7565   -0.0412    0.2894 H   0  0  0  0  0  0  0  0  0  0  0  0
   -0.0034   -1.4559   -0.8346 H   0  0  0  0  0  0  0  0  0  0  0  0
  1  5  1  0  0  0  0
  2  1  1  0  0  0  0
  2  8  1  0  0  0  0
  3  1  1  0  0  0  0
  4  1  1  0  0  0  0
  6  2  1  0  0  0  0
  6  9  1  0  0  0  0
  6 10  1  0  0  0  0
  7  2  1  0  0  0  0
  9 13  1  0  0  0  0
  9 12  1  0  0  0  0
 11  6  1  0  0  0  0
 14  9  1  0  0  0  0
M  END
$$$$
