14
butane_opt
C  -3.961383   0.279825   0.009991
C  -2.691994  -0.636297   0.052554
H  -4.792234  -0.267471  -0.115063
H  -3.998885   0.918952  -0.961162
H  -4.168337   0.906892   0.792876
C  -1.400041   0.155755   0.060949
H  -2.721390  -1.379285  -0.825647
H  -2.679205  -1.212331   0.927159
C  -0.152712  -0.678226   0.007210
H  -1.297778   0.919270   0.939273
H  -1.413554   0.829010  -0.828692
H  -0.012375  -1.405257   0.979514
H   0.829460  -0.047630  -0.235990
H  -0.296936  -1.176649  -0.790701
