butane_opt
 OpenBabel08242015423D

 14 13  0  0  0  0  0  0  0  0999 V2000
   -3.9295    0.2806   -0.0289 C   0  0  0  0  0  0  0  0  0  0  0  0
   -2.6871   -0.6355    0.1049 C   0  0  0  0  0  0  0  0  0  0  0  0
   -4.8480   -0.2982   -0.1442 H   0  0  0  0  0  0  0  0  0  0  0  0
   -3.9720    0.8122   -0.8854 H   0  0  0  0  0  0  0  0  0  0  0  0
   -4.0364    0.9772    0.8779 H   0  0  0  0  0  0  0  0  0  0  0  0
   -1.3963    0.1704    0.0309 C   0  0  0  0  0  0  0  0  0  0  0  0
   -2.7336   -1.2376   -0.6958 H   0  0  0  0  0  0  0  0  0  0  0  0
   -2.7318   -1.3159    1.0412 H   0  0  0  0  0  0  0  0  0  0  0  0
   -0.1729   -0.6948   -0.0124 C   0  0  0  0  0  0  0  0  0  0  0  0
   -1.3365    0.9881    0.9400 H   0  0  0  0  0  0  0  0  0  0  0  0
   -1.4723    0.7917   -0.8473 H   0  0  0  0  0  0  0  0  0  0  0  0
   -0.2354   -1.2210    0.8647 H   0  0  0  0  0  0  0  0  0  0  0  0
    0.7496   -0.0425    0.0344 H   0  0  0  0  0  0  0  0  0  0  0  0
   -0.1713   -1.3888   -0.8881 H   0  0  0  0  0  0  0  0  0  0  0  0
  1  2  1  0  0  0  0
  1  5  1  0  0  0  0
  2  8  1  0  0  0  0
  3  1  1  0  0  0  0
  4  1  1  0  0  0  0
  6  2  1  0  0  0  0
  6 10  1  0  0  0  0
  7  2  1  0  0  0  0
  9  6  1  0  0  0  0
  9 13  1  0  0  0  0
  9 12  1  0  0  0  0
 11  6  1  0  0  0  0
 14  9  1  0  0  0  0
M  END
$$$$
