butane_opt
 OpenBabel08242015423D

 14 13  0  0  0  0  0  0  0  0999 V2000
   -3.9281    0.2506    0.0596 C   0  0  0  0  0  0  0  0  0  0  0  0
   -2.6872   -0.5908   -0.0145 C   0  0  0  0  0  0  0  0  0  0  0  0
   -4.8450   -0.3376    0.2064 H   0  0  0  0  0  0  0  0  0  0  0  0
   -3.9982    0.8436   -0.8140 H   0  0  0  0  0  0  0  0  0  0  0  0
   -3.8930    0.9135    0.9133 H   0  0  0  0  0  0  0  0  0  0  0  0
   -1.4208    0.1811   -0.0497 C   0  0  0  0  0  0  0  0  0  0  0  0
   -2.7854   -1.3163   -0.8628 H   0  0  0  0  0  0  0  0  0  0  0  0
   -2.6639   -1.1471    0.8399 H   0  0  0  0  0  0  0  0  0  0  0  0
   -0.1590   -0.6958    0.0715 C   0  0  0  0  0  0  0  0  0  0  0  0
   -1.4791    0.9099    0.8079 H   0  0  0  0  0  0  0  0  0  0  0  0
   -1.3457    0.7437   -0.8729 H   0  0  0  0  0  0  0  0  0  0  0  0
   -0.2594   -1.4201    1.0761 H   0  0  0  0  0  0  0  0  0  0  0  0
    0.7244   -0.0667    0.0757 H   0  0  0  0  0  0  0  0  0  0  0  0
   -0.1299   -1.3435   -0.7301 H   0  0  0  0  0  0  0  0  0  0  0  0
  1  3  1  0  0  0  0
  1  5  1  0  0  0  0
  2  1  1  0  0  0  0
  2  8  1  0  0  0  0
  4  1  1  0  0  0  0
  6  2  1  0  0  0  0
  6  9  1  0  0  0  0
  6 10  1  0  0  0  0
  7  2  1  0  0  0  0
  9 13  1  0  0  0  0
  9 12  1  0  0  0  0
 11  6  1  0  0  0  0
 14  9  1  0  0  0  0
M  END
$$$$
