14
butane_opt
C  -3.929523   0.280625  -0.028863
C  -2.687071  -0.635474   0.104887
H  -4.847982  -0.298234  -0.144181
H  -3.971983   0.812193  -0.885382
H  -4.036433   0.977231   0.877916
C  -1.396346   0.170421   0.030890
H  -2.733556  -1.237597  -0.695767
H  -2.731823  -1.315921   1.041228
C  -0.172931  -0.694752  -0.012429
H  -1.336510   0.988086   0.940001
H  -1.472320   0.791729  -0.847279
H  -0.235361  -1.220977   0.864652
H   0.749586  -0.042469   0.034358
H  -0.171274  -1.388825  -0.888069
