butane_opt
 OpenBabel08242015423D

 14 13  0  0  0  0  0  0  0  0999 V2000
   -3.9506    0.2422    0.0369 C   0  0  0  0  0  0  0  0  0  0  0  0
   -2.7118   -0.5878    0.0076 C   0  0  0  0  0  0  0  0  0  0  0  0
   -4.8435   -0.3566   -0.0417 H   0  0  0  0  0  0  0  0  0  0  0  0
   -3.9786    0.6848   -0.7116 H   0  0  0  0  0  0  0  0  0  0  0  0
   -4.0083    1.0176    0.9481 H   0  0  0  0  0  0  0  0  0  0  0  0
   -1.4222    0.2083    0.0025 C   0  0  0  0  0  0  0  0  0  0  0  0
   -2.7166   -1.2593   -0.8472 H   0  0  0  0  0  0  0  0  0  0  0  0
   -2.7703   -1.1993    0.8795 H   0  0  0  0  0  0  0  0  0  0  0  0
   -0.1270   -0.7170    0.0596 C   0  0  0  0  0  0  0  0  0  0  0  0
   -1.3537    0.7740    0.7928 H   0  0  0  0  0  0  0  0  0  0  0  0
   -1.4256    0.9151   -0.9749 H   0  0  0  0  0  0  0  0  0  0  0  0
   -0.0360   -1.4267    1.0017 H   0  0  0  0  0  0  0  0  0  0  0  0
    0.7639   -0.1105   -0.0915 H   0  0  0  0  0  0  0  0  0  0  0  0
   -0.1098   -1.2661   -0.7574 H   0  0  0  0  0  0  0  0  0  0  0  0
  1  5  1  0  0  0  0
  2  1  1  0  0  0  0
  2  8  1  0  0  0  0
  3  1  1  0  0  0  0
  4  1  1  0  0  0  0
  6  2  1  0  0  0  0
  6  9  1  0  0  0  0
  6 10  1  0  0  0  0
  7  2  1  0  0  0  0
  9 12  1  0  0  0  0
 11  6  1  0  0  0  0
 13  9  1  0  0  0  0
 14  9  1  0  0  0  0
M  END
$$$$
