butane_opt
 OpenBabel08242015423D

 14 13  0  0  0  0  0  0  0  0999 V2000
   -3.9588    0.2538   -0.0544 C   0  0  0  0  0  0  0  0  0  0  0  0
   -2.7216   -0.6171    0.1248 C   0  0  0  0  0  0  0  0  0  0  0  0
   -4.9061   -0.3528   -0.1326 H   0  0  0  0  0  0  0  0  0  0  0  0
   -3.7735    0.7919   -0.9665 H   0  0  0  0  0  0  0  0  0  0  0  0
   -4.0446    1.0696    0.8969 H   0  0  0  0  0  0  0  0  0  0  0  0
   -1.3911    0.2160    0.0785 C   0  0  0  0  0  0  0  0  0  0  0  0
   -2.6536   -1.2190   -0.6432 H   0  0  0  0  0  0  0  0  0  0  0  0
   -2.8273   -1.3100    1.0469 H   0  0  0  0  0  0  0  0  0  0  0  0
   -0.1435   -0.7089   -0.0404 C   0  0  0  0  0  0  0  0  0  0  0  0
   -1.3551    0.8370    0.9149 H   0  0  0  0  0  0  0  0  0  0  0  0
   -1.4344    0.8632   -0.7938 H   0  0  0  0  0  0  0  0  0  0  0  0
   -0.0234   -1.2860    0.8204 H   0  0  0  0  0  0  0  0  0  0  0  0
    0.6844   -0.1752   -0.0340 H   0  0  0  0  0  0  0  0  0  0  0  0
   -0.1090   -1.4246   -0.9558 H   0  0  0  0  0  0  0  0  0  0  0  0
  1  2  1  0  0  0  0
  1  5  1  0  0  0  0
  2  8  1  0  0  0  0
  3  1  1  0  0  0  0
  4  1  1  0  0  0  0
  6  2  1  0  0  0  0
  6 10  1  0  0  0  0
  7  2  1  0  0  0  0
  9 13  1  0  0  0  0
  9  6  1  0  0  0  0
  9 12  1  0  0  0  0
 11  6  1  0  0  0  0
 14  9  1  0  0  0  0
M  END
$$$$
