butane_opt
 OpenBabel08242015423D

 14 13  0  0  0  0  0  0  0  0999 V2000
   -3.9387    0.2605    0.0126 C   0  0  0  0  0  0  0  0  0  0  0  0
   -2.6942   -0.6204    0.0377 C   0  0  0  0  0  0  0  0  0  0  0  0
   -4.8507   -0.3132   -0.0072 H   0  0  0  0  0  0  0  0  0  0  0  0
   -3.9792    0.9149   -0.9053 H   0  0  0  0  0  0  0  0  0  0  0  0
   -3.9811    0.9359    0.8638 H   0  0  0  0  0  0  0  0  0  0  0  0
   -1.4035    0.1896    0.0305 C   0  0  0  0  0  0  0  0  0  0  0  0
   -2.6983   -1.3272   -0.8343 H   0  0  0  0  0  0  0  0  0  0  0  0
   -2.6967   -1.2551    0.9512 H   0  0  0  0  0  0  0  0  0  0  0  0
   -0.1721   -0.6948    0.0331 C   0  0  0  0  0  0  0  0  0  0  0  0
   -1.3912    0.8825    0.8878 H   0  0  0  0  0  0  0  0  0  0  0  0
   -1.4189    0.8270   -0.8597 H   0  0  0  0  0  0  0  0  0  0  0  0
   -0.0492   -1.3592    0.9097 H   0  0  0  0  0  0  0  0  0  0  0  0
    0.7568   -0.0743   -0.1253 H   0  0  0  0  0  0  0  0  0  0  0  0
   -0.2130   -1.3170   -0.8066 H   0  0  0  0  0  0  0  0  0  0  0  0
  1  2  1  0  0  0  0
  1  5  1  0  0  0  0
  2  8  1  0  0  0  0
  3  1  1  0  0  0  0
  4  1  1  0  0  0  0
  6  9  1  0  0  0  0
  6  2  1  0  0  0  0
  6 10  1  0  0  0  0
  7  2  1  0  0  0  0
  9 12  1  0  0  0  0
 11  6  1  0  0  0  0
 13  9  1  0  0  0  0
 14  9  1  0  0  0  0
M  END
$$$$
