14
butane_opt
C  -3.944479   0.249432   0.081965
C  -2.694877  -0.589597  -0.046337
H  -4.860123  -0.366714   0.326688
H  -4.007969   0.952307  -0.881345
H  -3.818716   0.808528   0.879217
C  -1.410842   0.205359  -0.034829
H  -2.799398  -1.422680  -0.996032
H  -2.705465  -1.164090   0.835240
C  -0.147233  -0.717040   0.083856
H  -1.536661   0.849575   0.798400
H  -1.359046   0.859754  -0.976367
H  -0.211607  -1.343382   1.049535
H   0.754869  -0.112010   0.113665
H  -0.105366  -1.303380  -0.728070
