14
butane_opt
C  -3.959622   0.240062   0.049602
C  -2.709369  -0.580294  -0.015885
H  -4.948716  -0.395464   0.278619
H  -4.089384   0.971950  -0.912859
H  -3.829118   0.850165   0.924822
C  -1.407498   0.207346  -0.018994
H  -2.800568  -1.412917  -0.939324
H  -2.668149  -1.113352   0.781422
C  -0.142322  -0.714762   0.073859
H  -1.326824   0.843862   0.846954
H  -1.350226   0.854312  -0.909333
H  -0.124336  -1.409630   1.023040
H   0.761824  -0.167882   0.000133
H  -0.007797  -1.318295  -0.722529
