butane_opt
 OpenBabel08242015423D

 14 13  0  0  0  0  0  0  0  0999 V2000
   -3.9455    0.2842   -0.0352 C   0  0  0  0  0  0  0  0  0  0  0  0
   -2.7101   -0.6463    0.1045 C   0  0  0  0  0  0  0  0  0  0  0  0
   -4.7957   -0.2728   -0.0786 H   0  0  0  0  0  0  0  0  0  0  0  0
   -3.9887    0.8975   -0.9407 H   0  0  0  0  0  0  0  0  0  0  0  0
   -4.0681    0.9333    0.7548 H   0  0  0  0  0  0  0  0  0  0  0  0
   -1.3936    0.1680    0.0679 C   0  0  0  0  0  0  0  0  0  0  0  0
   -2.7601   -1.1865   -0.7076 H   0  0  0  0  0  0  0  0  0  0  0  0
   -2.7682   -1.2963    1.0290 H   0  0  0  0  0  0  0  0  0  0  0  0
   -0.1547   -0.6819   -0.0309 C   0  0  0  0  0  0  0  0  0  0  0  0
   -1.2931    0.9142    0.9668 H   0  0  0  0  0  0  0  0  0  0  0  0
   -1.4335    0.7534   -0.7970 H   0  0  0  0  0  0  0  0  0  0  0  0
   -0.1393   -1.2384    0.8284 H   0  0  0  0  0  0  0  0  0  0  0  0
    0.7667   -0.0908   -0.0045 H   0  0  0  0  0  0  0  0  0  0  0  0
   -0.1075   -1.3735   -0.8981 H   0  0  0  0  0  0  0  0  0  0  0  0
  1  2  1  0  0  0  0
  1  5  1  0  0  0  0
  2  8  1  0  0  0  0
  3  1  1  0  0  0  0
  4  1  1  0  0  0  0
  6  2  1  0  0  0  0
  6 10  1  0  0  0  0
  7  2  1  0  0  0  0
  9 13  1  0  0  0  0
  9  6  1  0  0  0  0
  9 12  1  0  0  0  0
 11  6  1  0  0  0  0
 14  9  1  0  0  0  0
M  END
$$$$
