14
butane_opt
C  -3.958811   0.253758  -0.054416
C  -2.721585  -0.617104   0.124757
H  -4.906131  -0.352786  -0.132600
H  -3.773496   0.791921  -0.966539
H  -4.044563   1.069635   0.896895
C  -1.391143   0.215954   0.078490
H  -2.653627  -1.218989  -0.643184
H  -2.827299  -1.309976   1.046882
C  -0.143452  -0.708888  -0.040418
H  -1.355149   0.837010   0.914892
H  -1.434445   0.863204  -0.793771
H  -0.023438  -1.285979   0.820419
H   0.684411  -0.175179  -0.034019
H  -0.109037  -1.424589  -0.955807
