14
butane_opt
C  -3.951873   0.262659   0.044786
C  -2.713488  -0.639127   0.024155
H  -4.822575  -0.260516  -0.176240
H  -4.019171   0.731164  -0.707831
H  -3.975593   1.175363   1.064057
C  -1.394514   0.182237  -0.032400
H  -2.731200  -1.287394  -0.836128
H  -2.742191  -1.190861   0.840256
C  -0.143783  -0.679337   0.075036
H  -1.383046   0.744923   0.750539
H  -1.465693   0.904283  -1.018341
H  -0.085737  -1.375155   1.029439
H   0.760208  -0.118179  -0.036379
H  -0.128582  -1.313592  -0.778305
