butane_opt
 OpenBabel08242015423D

 14 13  0  0  0  0  0  0  0  0999 V2000
   -3.9490    0.2848    0.0560 C   0  0  0  0  0  0  0  0  0  0  0  0
   -2.6956   -0.6415    0.0170 C   0  0  0  0  0  0  0  0  0  0  0  0
   -4.8377   -0.2694   -0.1768 H   0  0  0  0  0  0  0  0  0  0  0  0
   -3.9349    0.6663   -0.7107 H   0  0  0  0  0  0  0  0  0  0  0  0
   -4.0080    1.1170    0.9971 H   0  0  0  0  0  0  0  0  0  0  0  0
   -1.3880    0.1795   -0.0415 C   0  0  0  0  0  0  0  0  0  0  0  0
   -2.6583   -1.2971   -0.8294 H   0  0  0  0  0  0  0  0  0  0  0  0
   -2.6227   -1.2680    0.9292 H   0  0  0  0  0  0  0  0  0  0  0  0
   -0.1941   -0.6889    0.0523 C   0  0  0  0  0  0  0  0  0  0  0  0
   -1.2990    0.8209    0.8021 H   0  0  0  0  0  0  0  0  0  0  0  0
   -1.4003    0.8173   -0.9336 H   0  0  0  0  0  0  0  0  0  0  0  0
   -0.2196   -1.4150    1.0120 H   0  0  0  0  0  0  0  0  0  0  0  0
    0.7591   -0.0285    0.0610 H   0  0  0  0  0  0  0  0  0  0  0  0
   -0.0886   -1.2193   -0.6815 H   0  0  0  0  0  0  0  0  0  0  0  0
  1  5  1  0  0  0  0
  2  1  1  0  0  0  0
  2  8  1  0  0  0  0
  3  1  1  0  0  0  0
  4  1  1  0  0  0  0
  6  2  1  0  0  0  0
  6  9  1  0  0  0  0
  6 10  1  0  0  0  0
  7  2  1  0  0  0  0
  9 13  1  0  0  0  0
  9 12  1  0  0  0  0
 11  6  1  0  0  0  0
 14  9  1  0  0  0  0
M  END
$$$$
