14
butane_opt
C  -3.949025   0.284836   0.056022
C  -2.695623  -0.641535   0.016977
H  -4.837721  -0.269387  -0.176819
H  -3.934934   0.666293  -0.710688
H  -4.008009   1.116996   0.997097
C  -1.388026   0.179537  -0.041469
H  -2.658274  -1.297118  -0.829370
H  -2.622745  -1.268009   0.929182
C  -0.194145  -0.688934   0.052298
H  -1.298986   0.820860   0.802120
H  -1.400315   0.817345  -0.933574
H  -0.219588  -1.415046   1.011976
H   0.759093  -0.028496   0.061042
H  -0.088580  -1.219343  -0.681508
