butane_opt
 OpenBabel08242015423D

 14 13  0  0  0  0  0  0  0  0999 V2000
   -3.9241    0.2536   -0.0258 C   0  0  0  0  0  0  0  0  0  0  0  0
   -2.7092   -0.5946    0.0773 C   0  0  0  0  0  0  0  0  0  0  0  0
   -4.8488   -0.3889    0.2628 H   0  0  0  0  0  0  0  0  0  0  0  0
   -3.9224    1.1085   -1.0809 H   0  0  0  0  0  0  0  0  0  0  0  0
   -3.8796    0.7247    0.6921 H   0  0  0  0  0  0  0  0  0  0  0  0
   -1.4284    0.1851    0.0530 C   0  0  0  0  0  0  0  0  0  0  0  0
   -2.7482   -1.2497   -0.7318 H   0  0  0  0  0  0  0  0  0  0  0  0
   -2.7241   -1.2291    0.9838 H   0  0  0  0  0  0  0  0  0  0  0  0
   -0.1624   -0.7081   -0.0077 C   0  0  0  0  0  0  0  0  0  0  0  0
   -1.4143    1.0121    1.0141 H   0  0  0  0  0  0  0  0  0  0  0  0
   -1.3826    0.7093   -0.8008 H   0  0  0  0  0  0  0  0  0  0  0  0
   -0.1616   -1.2025    0.7817 H   0  0  0  0  0  0  0  0  0  0  0  0
    0.8286   -0.0728    0.0894 H   0  0  0  0  0  0  0  0  0  0  0  0
   -0.0920   -1.5040   -0.9753 H   0  0  0  0  0  0  0  0  0  0  0  0
  1  2  1  0  0  0  0
  1  3  1  0  0  0  0
  1  5  1  0  0  0  0
  2  8  1  0  0  0  0
  4  1  1  0  0  0  0
  6  2  1  0  0  0  0
  6 10  1  0  0  0  0
  7  2  1  0  0  0  0
  9  6  1  0  0  0  0
  9 13  1  0  0  0  0
  9 12  1  0  0  0  0
 11  6  1  0  0  0  0
 14  9  1  0  0  0  0
M  END
$$$$
