14
butane_opt
C  -3.934659   0.259398   0.070399
C  -2.688229  -0.603557   0.000624
H  -4.901385  -0.389363   0.065754
H  -3.964755   0.806809  -0.776540
H  -3.876555   1.022852   0.979095
C  -1.425445   0.172081  -0.055820
H  -2.703658  -1.274455  -0.846318
H  -2.655215  -1.157309   0.839821
C  -0.179238  -0.692866   0.078324
H  -1.470686   0.749330   0.724855
H  -1.305608   0.860680  -1.050543
H  -0.246781  -1.227798   0.958934
H   0.771077  -0.073661   0.206646
H   0.052075  -1.414746  -0.787789
