butane_opt
 OpenBabel08242015423D

 14 13  0  0  0  0  0  0  0  0999 V2000
   -3.9239    0.2504    0.0578 C   0  0  0  0  0  0  0  0  0  0  0  0
   -2.7093   -0.5830    0.0169 C   0  0  0  0  0  0  0  0  0  0  0  0
   -4.8911   -0.4142   -0.2268 H   0  0  0  0  0  0  0  0  0  0  0  0
   -3.8255    0.5416   -0.6499 H   0  0  0  0  0  0  0  0  0  0  0  0
   -3.9507    1.1320    1.0210 H   0  0  0  0  0  0  0  0  0  0  0  0
   -1.4240    0.2020   -0.0575 C   0  0  0  0  0  0  0  0  0  0  0  0
   -2.6795   -1.2082   -0.8073 H   0  0  0  0  0  0  0  0  0  0  0  0
   -2.6892   -1.2661    0.9468 H   0  0  0  0  0  0  0  0  0  0  0  0
   -0.1533   -0.7135    0.0747 C   0  0  0  0  0  0  0  0  0  0  0  0
   -1.4649    0.8404    0.7881 H   0  0  0  0  0  0  0  0  0  0  0  0
   -1.3965    0.8500   -0.9632 H   0  0  0  0  0  0  0  0  0  0  0  0
   -0.0971   -1.4079    1.0265 H   0  0  0  0  0  0  0  0  0  0  0  0
    0.6960   -0.1397    0.0006 H   0  0  0  0  0  0  0  0  0  0  0  0
   -0.1886   -1.2941   -0.7596 H   0  0  0  0  0  0  0  0  0  0  0  0
  1  5  1  0  0  0  0
  2  1  1  0  0  0  0
  2  8  1  0  0  0  0
  3  1  1  0  0  0  0
  4  1  1  0  0  0  0
  6  2  1  0  0  0  0
  6  9  1  0  0  0  0
  6 10  1  0  0  0  0
  7  2  1  0  0  0  0
  9 12  1  0  0  0  0
 11  6  1  0  0  0  0
 13  9  1  0  0  0  0
 14  9  1  0  0  0  0
M  END
$$$$
