14
butane_opt
C  -3.916829   0.237317  -0.039496
C  -2.692286  -0.584618   0.116034
H  -4.833756  -0.343200  -0.179460
H  -3.752854   0.795245  -0.885183
H  -4.082848   0.977867   0.821367
C  -1.421025   0.201116   0.055907
H  -2.797468  -1.147764  -0.663630
H  -2.740175  -1.342927   1.099770
C  -0.165898  -0.703612  -0.032989
H  -1.362579   0.961950   0.968309
H  -1.494911   0.761596  -0.829545
H  -0.156041  -1.333476   0.850921
H   0.709169  -0.149893   0.040795
H  -0.155635  -1.467808  -0.975119
