butane_opt
 OpenBabel08242015423D

 14 13  0  0  0  0  0  0  0  0999 V2000
   -3.9519    0.2627    0.0448 C   0  0  0  0  0  0  0  0  0  0  0  0
   -2.7135   -0.6391    0.0242 C   0  0  0  0  0  0  0  0  0  0  0  0
   -4.8226   -0.2605   -0.1762 H   0  0  0  0  0  0  0  0  0  0  0  0
   -4.0192    0.7312   -0.7078 H   0  0  0  0  0  0  0  0  0  0  0  0
   -3.9756    1.1754    1.0641 H   0  0  0  0  0  0  0  0  0  0  0  0
   -1.3945    0.1822   -0.0324 C   0  0  0  0  0  0  0  0  0  0  0  0
   -2.7312   -1.2874   -0.8361 H   0  0  0  0  0  0  0  0  0  0  0  0
   -2.7422   -1.1909    0.8403 H   0  0  0  0  0  0  0  0  0  0  0  0
   -0.1438   -0.6793    0.0750 C   0  0  0  0  0  0  0  0  0  0  0  0
   -1.3830    0.7449    0.7505 H   0  0  0  0  0  0  0  0  0  0  0  0
   -1.4657    0.9043   -1.0183 H   0  0  0  0  0  0  0  0  0  0  0  0
   -0.0857   -1.3752    1.0294 H   0  0  0  0  0  0  0  0  0  0  0  0
    0.7602   -0.1182   -0.0364 H   0  0  0  0  0  0  0  0  0  0  0  0
   -0.1286   -1.3136   -0.7783 H   0  0  0  0  0  0  0  0  0  0  0  0
  1  5  1  0  0  0  0
  2  1  1  0  0  0  0
  2  8  1  0  0  0  0
  3  1  1  0  0  0  0
  4  1  1  0  0  0  0
  6  2  1  0  0  0  0
  6  9  1  0  0  0  0
  6 10  1  0  0  0  0
  7  2  1  0  0  0  0
  9 12  1  0  0  0  0
 11  6  1  0  0  0  0
 13  9  1  0  0  0  0
 14  9  1  0  0  0  0
M  END
$$$$
