14
butane_opt
C  -3.924120   0.253559  -0.025755
C  -2.709213  -0.594646   0.077346
H  -4.848767  -0.388911   0.262846
H  -3.922405   1.108519  -1.080922
H  -3.879569   0.724675   0.692124
C  -1.428383   0.185114   0.053011
H  -2.748165  -1.249678  -0.731820
H  -2.724123  -1.229088   0.983764
C  -0.162375  -0.708146  -0.007666
H  -1.414272   1.012085   1.014083
H  -1.382551   0.709347  -0.800780
H  -0.161599  -1.202498   0.781745
H   0.828567  -0.072790   0.089413
H  -0.091954  -1.504047  -0.975336
