14
butane_opt
C  -3.923905   0.250357   0.057815
C  -2.709311  -0.582972   0.016889
H  -4.891112  -0.414226  -0.226843
H  -3.825535   0.541617  -0.649943
H  -3.950658   1.132029   1.021046
C  -1.424029   0.202032  -0.057539
H  -2.679519  -1.208223  -0.807311
H  -2.689226  -1.266142   0.946821
C  -0.153301  -0.713485   0.074674
H  -1.464869   0.840350   0.788112
H  -1.396542   0.849978  -0.963215
H  -0.097126  -1.407936   1.026493
H   0.695963  -0.139702   0.000609
H  -0.188560  -1.294068  -0.759578
