14
butane_opt
C  -3.975104   0.294604  -0.013260
C  -2.697082  -0.642908   0.060892
H  -4.883610  -0.302726   0.072343
H  -3.924118   0.948414  -0.926595
H  -4.046588   0.920022   0.799715
C  -1.385825   0.155185   0.056860
H  -2.740757  -1.400270  -0.818965
H  -2.690823  -1.169425   0.901804
C  -0.153365  -0.668747   0.004906
H  -1.288370   0.874295   0.972910
H  -1.332788   0.765666  -0.843223
H  -0.085832  -1.432306   0.985681
H   0.768477  -0.078074  -0.177531
H  -0.275044  -1.247581  -0.829461
