butane_opt
 OpenBabel08242015423D

 14 13  0  0  0  0  0  0  0  0999 V2000
   -3.9287    0.2808    0.0543 C   0  0  0  0  0  0  0  0  0  0  0  0
   -2.6802   -0.6318   -0.0318 C   0  0  0  0  0  0  0  0  0  0  0  0
   -4.7803   -0.2824    0.2343 H   0  0  0  0  0  0  0  0  0  0  0  0
   -4.2037    0.9814   -0.8720 H   0  0  0  0  0  0  0  0  0  0  0  0
   -3.8083    0.8831    0.9121 H   0  0  0  0  0  0  0  0  0  0  0  0
   -1.3891    0.1591   -0.0111 C   0  0  0  0  0  0  0  0  0  0  0  0
   -2.7628   -1.3623   -0.9137 H   0  0  0  0  0  0  0  0  0  0  0  0
   -2.6672   -1.2526    0.8492 H   0  0  0  0  0  0  0  0  0  0  0  0
   -0.2016   -0.6788    0.0698 C   0  0  0  0  0  0  0  0  0  0  0  0
   -1.4252    0.8309    0.8522 H   0  0  0  0  0  0  0  0  0  0  0  0
   -1.3885    0.8183   -0.9616 H   0  0  0  0  0  0  0  0  0  0  0  0
   -0.2062   -1.2950    1.0048 H   0  0  0  0  0  0  0  0  0  0  0  0
    0.7376   -0.0574    0.0507 H   0  0  0  0  0  0  0  0  0  0  0  0
   -0.1337   -1.2624   -0.7026 H   0  0  0  0  0  0  0  0  0  0  0  0
  1  3  1  0  0  0  0
  1  5  1  0  0  0  0
  2  6  1  0  0  0  0
  2  1  1  0  0  0  0
  2  8  1  0  0  0  0
  4  1  1  0  0  0  0
  6  9  1  0  0  0  0
  6 10  1  0  0  0  0
  7  2  1  0  0  0  0
  9 12  1  0  0  0  0
 11  6  1  0  0  0  0
 13  9  1  0  0  0  0
 14  9  1  0  0  0  0
M  END
$$$$
