14
butane_opt
C  -3.928697   0.280770   0.054315
C  -2.680232  -0.631829  -0.031772
H  -4.780272  -0.282362   0.234305
H  -4.203674   0.981386  -0.871995
H  -3.808311   0.883121   0.912108
C  -1.389128   0.159075  -0.011136
H  -2.762774  -1.362329  -0.913750
H  -2.667222  -1.252554   0.849199
C  -0.201584  -0.678838   0.069848
H  -1.425180   0.830856   0.852209
H  -1.388493   0.818334  -0.961625
H  -0.206171  -1.295026   1.004769
H   0.737584  -0.057440   0.050739
H  -0.133739  -1.262428  -0.702618
