14
butane_opt
C  -3.946024   0.257578   0.079938
C  -2.709833  -0.612401  -0.012205
H  -4.896565  -0.382656   0.072581
H  -4.056046   0.767348  -0.743835
H  -3.929354   1.038349   0.986950
C  -1.394261   0.203914  -0.083753
H  -2.790634  -1.228574  -0.817620
H  -2.700113  -1.216597   0.836654
C  -0.145995  -0.716080   0.105735
H  -1.535080   0.837257   0.720496
H  -1.303784   0.882722  -1.012599
H  -0.251765  -1.229289   0.973291
H   0.789178  -0.074355   0.180098
H   0.010710  -1.479996  -0.844924
