14
butane_opt
C  -3.919401   0.242214   0.045911
C  -2.694641  -0.571106   0.000804
H  -4.894455  -0.383228   0.097706
H  -4.008852   0.778573  -0.800564
H  -3.832886   1.004831   1.005926
C  -1.415822   0.190685  -0.035834
H  -2.837550  -1.241503  -0.849966
H  -2.759279  -1.271104   0.933978
C  -0.168245  -0.713437   0.065256
H  -1.457264   0.791953   0.776271
H  -1.411044   0.905987  -0.970919
H  -0.204084  -1.323212   0.915843
H   0.788731  -0.109835   0.239532
H  -0.026484  -1.403095  -0.812774
