butane_opt
 OpenBabel08242015423D

 14 13  0  0  0  0  0  0  0  0999 V2000
   -3.9460    0.2576    0.0799 C   0  0  0  0  0  0  0  0  0  0  0  0
   -2.7098   -0.6124   -0.0122 C   0  0  0  0  0  0  0  0  0  0  0  0
   -4.8966   -0.3827    0.0726 H   0  0  0  0  0  0  0  0  0  0  0  0
   -4.0560    0.7673   -0.7438 H   0  0  0  0  0  0  0  0  0  0  0  0
   -3.9294    1.0383    0.9869 H   0  0  0  0  0  0  0  0  0  0  0  0
   -1.3943    0.2039   -0.0838 C   0  0  0  0  0  0  0  0  0  0  0  0
   -2.7906   -1.2286   -0.8176 H   0  0  0  0  0  0  0  0  0  0  0  0
   -2.7001   -1.2166    0.8367 H   0  0  0  0  0  0  0  0  0  0  0  0
   -0.1460   -0.7161    0.1057 C   0  0  0  0  0  0  0  0  0  0  0  0
   -1.5351    0.8373    0.7205 H   0  0  0  0  0  0  0  0  0  0  0  0
   -1.3038    0.8827   -1.0126 H   0  0  0  0  0  0  0  0  0  0  0  0
   -0.2518   -1.2293    0.9733 H   0  0  0  0  0  0  0  0  0  0  0  0
    0.7892   -0.0744    0.1801 H   0  0  0  0  0  0  0  0  0  0  0  0
    0.0107   -1.4800   -0.8449 H   0  0  0  0  0  0  0  0  0  0  0  0
  1  5  1  0  0  0  0
  2  1  1  0  0  0  0
  2  8  1  0  0  0  0
  3  1  1  0  0  0  0
  4  1  1  0  0  0  0
  6  2  1  0  0  0  0
  6  9  1  0  0  0  0
  6 10  1  0  0  0  0
  7  2  1  0  0  0  0
  9 13  1  0  0  0  0
  9 12  1  0  0  0  0
 11  6  1  0  0  0  0
 14  9  1  0  0  0  0
M  END
$$$$
