14
butane_opt
C  -3.931252   0.269247   0.023631
C  -2.706197  -0.624636   0.024371
H  -4.806488  -0.315340   0.010462
H  -3.952112   0.881979  -0.884055
H  -3.923048   0.955329   0.909248
C  -1.406688   0.184055   0.016366
H  -2.707109  -1.306185  -0.828101
H  -2.694711  -1.236977   0.909348
C  -0.168062  -0.695313   0.033886
H  -1.432919   0.866538   0.877377
H  -1.368466   0.809094  -0.857128
H  -0.121361  -1.371223   0.961814
H   0.743619  -0.082918  -0.094161
H  -0.216923  -1.262609  -0.741965
