butane_opt
 OpenBabel08242015423D

 14 13  0  0  0  0  0  0  0  0999 V2000
   -3.9371    0.2781   -0.0388 C   0  0  0  0  0  0  0  0  0  0  0  0
   -2.6630   -0.6304    0.0742 C   0  0  0  0  0  0  0  0  0  0  0  0
   -4.8711   -0.3423    0.2819 H   0  0  0  0  0  0  0  0  0  0  0  0
   -4.0780    1.0944   -1.0355 H   0  0  0  0  0  0  0  0  0  0  0  0
   -3.8933    0.7113    0.7064 H   0  0  0  0  0  0  0  0  0  0  0  0
   -1.4063    0.1796    0.0673 C   0  0  0  0  0  0  0  0  0  0  0  0
   -2.6575   -1.3227   -0.7984 H   0  0  0  0  0  0  0  0  0  0  0  0
   -2.7382   -1.3174    0.9866 H   0  0  0  0  0  0  0  0  0  0  0  0
   -0.1925   -0.6823   -0.0205 C   0  0  0  0  0  0  0  0  0  0  0  0
   -1.3645    0.9976    0.9971 H   0  0  0  0  0  0  0  0  0  0  0  0
   -1.4184    0.7012   -0.7149 H   0  0  0  0  0  0  0  0  0  0  0  0
   -0.1229   -1.2475    0.8208 H   0  0  0  0  0  0  0  0  0  0  0  0
    0.7233   -0.1050    0.0631 H   0  0  0  0  0  0  0  0  0  0  0  0
   -0.2115   -1.3737   -0.8730 H   0  0  0  0  0  0  0  0  0  0  0  0
  1  2  1  0  0  0  0
  1  3  1  0  0  0  0
  1  5  1  0  0  0  0
  2  8  1  0  0  0  0
  4  1  1  0  0  0  0
  6  2  1  0  0  0  0
  6 10  1  0  0  0  0
  7  2  1  0  0  0  0
  9 13  1  0  0  0  0
  9  6  1  0  0  0  0
  9 12  1  0  0  0  0
 11  6  1  0  0  0  0
 14  9  1  0  0  0  0
M  END
$$$$
