14
butane_opt
C  -3.950373   0.247129  -0.022938
C  -2.706806  -0.611287   0.083467
H  -4.824116  -0.365453  -0.004723
H  -3.952140   0.845061  -0.884913
H  -3.924470   0.866122   0.834993
C  -1.407809   0.223104   0.033711
H  -2.632757  -1.151354  -0.651274
H  -2.708741  -1.311800   1.052827
C  -0.150313  -0.709284  -0.014425
H  -1.417269   0.905930   0.915541
H  -1.411681   0.835860  -0.864585
H  -0.170747  -1.190640   0.801461
H   0.671667  -0.197791   0.223490
H  -0.058415  -1.521283  -0.960892
