butane_opt
 OpenBabel08242015423D

 14 13  0  0  0  0  0  0  0  0999 V2000
   -3.9417    0.2594   -0.0096 C   0  0  0  0  0  0  0  0  0  0  0  0
   -2.6926   -0.6056    0.0478 C   0  0  0  0  0  0  0  0  0  0  0  0
   -4.8867   -0.3651    0.2032 H   0  0  0  0  0  0  0  0  0  0  0  0
   -4.0088    0.9739   -0.9476 H   0  0  0  0  0  0  0  0  0  0  0  0
   -3.9035    0.7865    0.7708 H   0  0  0  0  0  0  0  0  0  0  0  0
   -1.4095    0.1926    0.0413 C   0  0  0  0  0  0  0  0  0  0  0  0
   -2.6555   -1.2720   -0.7967 H   0  0  0  0  0  0  0  0  0  0  0  0
   -2.7799   -1.2457    0.9849 H   0  0  0  0  0  0  0  0  0  0  0  0
   -0.1587   -0.7019    0.0118 C   0  0  0  0  0  0  0  0  0  0  0  0
   -1.3800    0.9132    0.9387 H   0  0  0  0  0  0  0  0  0  0  0  0
   -1.4146    0.8073   -0.8239 H   0  0  0  0  0  0  0  0  0  0  0  0
   -0.1287   -1.2734    0.8640 H   0  0  0  0  0  0  0  0  0  0  0  0
    0.7350   -0.0954    0.0357 H   0  0  0  0  0  0  0  0  0  0  0  0
   -0.1624   -1.4433   -0.8983 H   0  0  0  0  0  0  0  0  0  0  0  0
  1  2  1  0  0  0  0
  1  3  1  0  0  0  0
  1  5  1  0  0  0  0
  2  8  1  0  0  0  0
  4  1  1  0  0  0  0
  6  2  1  0  0  0  0
  6 10  1  0  0  0  0
  7  2  1  0  0  0  0
  9 13  1  0  0  0  0
  9  6  1  0  0  0  0
  9 12  1  0  0  0  0
 11  6  1  0  0  0  0
 14  9  1  0  0  0  0
M  END
$$$$
