14
butane_opt
C  -3.961192   0.253155  -0.032661
C  -2.729308  -0.608657   0.065198
H  -4.859654  -0.299554   0.146143
H  -3.992374   1.018772  -1.041408
H  -3.901210   0.839286   0.751615
C  -1.393127   0.191142   0.086937
H  -2.616055  -1.208986  -0.729889
H  -2.867051  -1.263192   1.028330
C  -0.129250  -0.699670  -0.016606
H  -1.379113   0.907750   0.955708
H  -1.464401   0.710907  -0.738134
H  -0.044964  -1.301387   0.872342
H   0.790728  -0.110591  -0.113219
H  -0.143148  -1.388920  -0.935137
