14
butane_opt
C  -3.943271   0.260473  -0.029412
C  -2.684815  -0.623758   0.120855
H  -4.775555  -0.266936  -0.240771
H  -3.807539   0.850133  -0.925560
H  -4.101497   1.010888   0.843440
C  -1.408268   0.193588   0.064176
H  -2.598902  -1.333483  -0.749330
H  -2.726183  -1.341458   1.067477
C  -0.182246  -0.689879  -0.026194
H  -1.295495   0.852541   0.910301
H  -1.520230   0.799911  -0.860199
H  -0.187332  -1.247400   0.822671
H   0.780680  -0.086191  -0.061792
H  -0.173557  -1.376913  -0.912435
