14
butane_opt
C  -3.951659   0.251114   0.076628
C  -2.705056  -0.612207   0.005036
H  -4.770140  -0.230922   0.008033
H  -4.052061   0.796918  -0.796780
H  -3.933504   0.945058   0.972104
C  -1.409330   0.201623  -0.068333
H  -2.790600  -1.343788  -0.859678
H  -2.720755  -1.193568   0.894075
C  -0.147020  -0.704046   0.066475
H  -1.407419   0.831303   0.771157
H  -1.317550   0.883384  -1.019455
H  -0.304689  -1.271558   0.996646
H   0.746801  -0.096906   0.290570
H   0.077684  -1.427657  -0.785419
