14
butane_opt
C  -3.931711   0.269845   0.003270
C  -2.696673  -0.624311   0.054150
H  -4.812088  -0.329657   0.169400
H  -4.029269   1.044551  -0.989949
H  -3.964209   0.857588   0.787765
C  -1.400985   0.172105   0.035516
H  -2.670562  -1.343228  -0.827297
H  -2.710326  -1.196898   0.887639
C  -0.176564  -0.687534   0.013404
H  -1.364128   0.875792   0.892115
H  -1.392806   0.760804  -0.837788
H  -0.187494  -1.268195   0.890175
H   0.758617  -0.069150   0.033318
H  -0.175416  -1.356677  -0.850142
