14
butane_opt
C  -3.935396   0.243387   0.071178
C  -2.708746  -0.576098  -0.008722
H  -4.883639  -0.373284   0.087417
H  -3.938016   0.756501  -0.764682
H  -3.927823   1.025443   1.051618
C  -1.416003   0.190434  -0.052530
H  -2.746313  -1.314782  -0.929242
H  -2.710559  -1.176510   0.835240
C  -0.143518  -0.714574   0.084745
H  -1.451622   0.714181   0.724879
H  -1.286645   0.948271  -1.084761
H  -0.249014  -1.264899   0.991506
H   0.706350  -0.149822   0.168706
H  -0.071252  -1.367887  -0.761489
