butane_opt
 OpenBabel08242015423D

 14 13  0  0  0  0  0  0  0  0999 V2000
   -3.9585    0.2634   -0.0338 C   0  0  0  0  0  0  0  0  0  0  0  0
   -2.7174   -0.6079    0.0955 C   0  0  0  0  0  0  0  0  0  0  0  0
   -4.9089   -0.3605   -0.1525 H   0  0  0  0  0  0  0  0  0  0  0  0
   -3.9210    0.8616   -0.9202 H   0  0  0  0  0  0  0  0  0  0  0  0
   -4.0708    0.8666    0.7261 H   0  0  0  0  0  0  0  0  0  0  0  0
   -1.4039    0.1960    0.0880 C   0  0  0  0  0  0  0  0  0  0  0  0
   -2.6828   -1.2344   -0.7576 H   0  0  0  0  0  0  0  0  0  0  0  0
   -2.6650   -1.3327    1.0314 H   0  0  0  0  0  0  0  0  0  0  0  0
   -0.1383   -0.6967   -0.0346 C   0  0  0  0  0  0  0  0  0  0  0  0
   -1.3188    0.9591    1.0223 H   0  0  0  0  0  0  0  0  0  0  0  0
   -1.4226    0.7478   -0.7624 H   0  0  0  0  0  0  0  0  0  0  0  0
    0.0354   -1.4105    0.9310 H   0  0  0  0  0  0  0  0  0  0  0  0
    0.7438   -0.1399   -0.1868 H   0  0  0  0  0  0  0  0  0  0  0  0
   -0.1926   -1.2953   -0.8744 H   0  0  0  0  0  0  0  0  0  0  0  0
  1  2  1  0  0  0  0
  1  5  1  0  0  0  0
  2  8  1  0  0  0  0
  3  1  1  0  0  0  0
  4  1  1  0  0  0  0
  6  2  1  0  0  0  0
  6 10  1  0  0  0  0
  7  2  1  0  0  0  0
  9  6  1  0  0  0  0
  9 12  1  0  0  0  0
 11  6  1  0  0  0  0
 13  9  1  0  0  0  0
 14  9  1  0  0  0  0
M  END
$$$$
