butane_opt
 OpenBabel08242015423D

 14 13  0  0  0  0  0  0  0  0999 V2000
   -3.9739    0.2856    0.0661 C   0  0  0  0  0  0  0  0  0  0  0  0
   -2.6842   -0.6559   -0.0183 C   0  0  0  0  0  0  0  0  0  0  0  0
   -4.8447   -0.2843    0.2366 H   0  0  0  0  0  0  0  0  0  0  0  0
   -4.1367    0.9796   -0.8824 H   0  0  0  0  0  0  0  0  0  0  0  0
   -3.9350    0.8890    0.9028 H   0  0  0  0  0  0  0  0  0  0  0  0
   -1.3754    0.1892   -0.0220 C   0  0  0  0  0  0  0  0  0  0  0  0
   -2.7185   -1.4354   -0.9362 H   0  0  0  0  0  0  0  0  0  0  0  0
   -2.6530   -1.2032    0.7997 H   0  0  0  0  0  0  0  0  0  0  0  0
   -0.1629   -0.6727    0.0653 C   0  0  0  0  0  0  0  0  0  0  0  0
   -1.4564    0.8103    0.7247 H   0  0  0  0  0  0  0  0  0  0  0  0
   -1.3462    0.7901   -0.9146 H   0  0  0  0  0  0  0  0  0  0  0  0
   -0.2220   -1.3866    1.0104 H   0  0  0  0  0  0  0  0  0  0  0  0
    0.7402   -0.0829    0.1573 H   0  0  0  0  0  0  0  0  0  0  0  0
   -0.0960   -1.2862   -0.7443 H   0  0  0  0  0  0  0  0  0  0  0  0
  1  3  1  0  0  0  0
  1  5  1  0  0  0  0
  2  1  1  0  0  0  0
  2  8  1  0  0  0  0
  4  1  1  0  0  0  0
  6  2  1  0  0  0  0
  6  9  1  0  0  0  0
  6 10  1  0  0  0  0
  7  2  1  0  0  0  0
  9 13  1  0  0  0  0
  9 12  1  0  0  0  0
 11  6  1  0  0  0  0
 14  9  1  0  0  0  0
M  END
$$$$
