14
butane_opt
C  -3.973873   0.285568   0.066102
C  -2.684226  -0.655937  -0.018285
H  -4.844679  -0.284313   0.236617
H  -4.136708   0.979639  -0.882386
H  -3.934967   0.888983   0.902830
C  -1.375358   0.189152  -0.021998
H  -2.718456  -1.435354  -0.936220
H  -2.652966  -1.203163   0.799732
C  -0.162923  -0.672662   0.065298
H  -1.456409   0.810337   0.724731
H  -1.346158   0.790073  -0.914609
H  -0.221968  -1.386596   1.010363
H   0.740199  -0.082880   0.157259
H  -0.095966  -1.286197  -0.744308
