14
butane_opt
C  -3.932373   0.245645  -0.022073
C  -2.704503  -0.585558   0.054940
H  -4.912918  -0.403775   0.184366
H  -3.946012   1.060084  -1.033487
H  -3.875091   0.712944   0.691874
C  -1.422173   0.184924   0.076134
H  -2.672334  -1.179759  -0.756347
H  -2.705405  -1.287850   1.043957
C  -0.149500  -0.689446  -0.010787
H  -1.388623   0.961570   0.972870
H  -1.474413   0.750922  -0.777320
H  -0.060365  -1.299505   0.860698
H   0.711127  -0.157902   0.035316
H  -0.189782  -1.512259  -0.985633
