butane_opt
 OpenBabel08242015423D

 14 13  0  0  0  0  0  0  0  0999 V2000
   -3.9550    0.2693    0.0495 C   0  0  0  0  0  0  0  0  0  0  0  0
   -2.6853   -0.6211   -0.0107 C   0  0  0  0  0  0  0  0  0  0  0  0
   -4.8066   -0.2730    0.3051 H   0  0  0  0  0  0  0  0  0  0  0  0
   -4.1722    1.0074   -0.9217 H   0  0  0  0  0  0  0  0  0  0  0  0
   -3.8701    0.8141    0.8214 H   0  0  0  0  0  0  0  0  0  0  0  0
   -1.3976    0.1500   -0.0106 C   0  0  0  0  0  0  0  0  0  0  0  0
   -2.7804   -1.3549   -0.9372 H   0  0  0  0  0  0  0  0  0  0  0  0
   -2.6340   -1.1589    0.7941 H   0  0  0  0  0  0  0  0  0  0  0  0
   -0.1534   -0.6739    0.0690 C   0  0  0  0  0  0  0  0  0  0  0  0
   -1.4741    0.8575    0.8833 H   0  0  0  0  0  0  0  0  0  0  0  0
   -1.3566    0.8482   -0.9740 H   0  0  0  0  0  0  0  0  0  0  0  0
   -0.1942   -1.2666    0.9894 H   0  0  0  0  0  0  0  0  0  0  0  0
    0.7852   -0.1058    0.0900 H   0  0  0  0  0  0  0  0  0  0  0  0
   -0.2274   -1.3238   -0.7920 H   0  0  0  0  0  0  0  0  0  0  0  0
  1  3  1  0  0  0  0
  1  5  1  0  0  0  0
  2  6  1  0  0  0  0
  2  1  1  0  0  0  0
  2  8  1  0  0  0  0
  4  1  1  0  0  0  0
  6  9  1  0  0  0  0
  6 10  1  0  0  0  0
  7  2  1  0  0  0  0
  9 13  1  0  0  0  0
  9 12  1  0  0  0  0
 11  6  1  0  0  0  0
 14  9  1  0  0  0  0
M  END
$$$$
