butane_opt
 OpenBabel08242015423D

 14 13  0  0  0  0  0  0  0  0999 V2000
   -3.9300    0.2748    0.0406 C   0  0  0  0  0  0  0  0  0  0  0  0
   -2.6884   -0.6150    0.0233 C   0  0  0  0  0  0  0  0  0  0  0  0
   -4.8885   -0.3306   -0.1488 H   0  0  0  0  0  0  0  0  0  0  0  0
   -3.9580    0.7253   -0.7226 H   0  0  0  0  0  0  0  0  0  0  0  0
   -3.9071    1.0833    1.0011 H   0  0  0  0  0  0  0  0  0  0  0  0
   -1.4039    0.1683   -0.0225 C   0  0  0  0  0  0  0  0  0  0  0  0
   -2.7135   -1.2584   -0.8235 H   0  0  0  0  0  0  0  0  0  0  0  0
   -2.7120   -1.2374    0.9268 H   0  0  0  0  0  0  0  0  0  0  0  0
   -0.1929   -0.6838    0.0567 C   0  0  0  0  0  0  0  0  0  0  0  0
   -1.3475    0.6951    0.7501 H   0  0  0  0  0  0  0  0  0  0  0  0
   -1.4062    0.8785   -0.9365 H   0  0  0  0  0  0  0  0  0  0  0  0
   -0.1606   -1.3578    0.9584 H   0  0  0  0  0  0  0  0  0  0  0  0
    0.7444   -0.0348    0.0525 H   0  0  0  0  0  0  0  0  0  0  0  0
   -0.1036   -1.3669   -0.7798 H   0  0  0  0  0  0  0  0  0  0  0  0
  1  5  1  0  0  0  0
  2  1  1  0  0  0  0
  2  8  1  0  0  0  0
  3  1  1  0  0  0  0
  4  1  1  0  0  0  0
  6  2  1  0  0  0  0
  6  9  1  0  0  0  0
  6 10  1  0  0  0  0
  7  2  1  0  0  0  0
  9 12  1  0  0  0  0
 11  6  1  0  0  0  0
 13  9  1  0  0  0  0
 14  9  1  0  0  0  0
M  END
$$$$
