14
butane_opt
C  -3.958479   0.263415  -0.033837
C  -2.717440  -0.607947   0.095520
H  -4.908943  -0.360467  -0.152534
H  -3.921005   0.861553  -0.920226
H  -4.070786   0.866622   0.726137
C  -1.403899   0.195980   0.087980
H  -2.682810  -1.234371  -0.757648
H  -2.664971  -1.332739   1.031404
C  -0.138273  -0.696723  -0.034586
H  -1.318781   0.959083   1.022251
H  -1.422624   0.747753  -0.762420
H   0.035388  -1.410536   0.931009
H   0.743762  -0.139862  -0.186790
H  -0.192595  -1.295319  -0.874360
