butane_opt
 OpenBabel08242015423D

 14 13  0  0  0  0  0  0  0  0999 V2000
   -3.9518    0.2745   -0.0438 C   0  0  0  0  0  0  0  0  0  0  0  0
   -2.6863   -0.6378    0.0864 C   0  0  0  0  0  0  0  0  0  0  0  0
   -4.8967   -0.3220   -0.0370 H   0  0  0  0  0  0  0  0  0  0  0  0
   -3.9866    1.0115   -1.0069 H   0  0  0  0  0  0  0  0  0  0  0  0
   -4.0492    0.8840    0.7867 H   0  0  0  0  0  0  0  0  0  0  0  0
   -1.4111    0.1700    0.1128 C   0  0  0  0  0  0  0  0  0  0  0  0
   -2.6081   -1.2959   -0.7351 H   0  0  0  0  0  0  0  0  0  0  0  0
   -2.7601   -1.2574    0.9762 H   0  0  0  0  0  0  0  0  0  0  0  0
   -0.1638   -0.6758   -0.0280 C   0  0  0  0  0  0  0  0  0  0  0  0
   -1.3367    0.8999    0.9463 H   0  0  0  0  0  0  0  0  0  0  0  0
   -1.3347    0.7450   -0.7531 H   0  0  0  0  0  0  0  0  0  0  0  0
    0.0717   -1.3574    0.8613 H   0  0  0  0  0  0  0  0  0  0  0  0
    0.7094   -0.0790   -0.2915 H   0  0  0  0  0  0  0  0  0  0  0  0
   -0.2729   -1.2716   -0.8437 H   0  0  0  0  0  0  0  0  0  0  0  0
  1  3  1  0  0  0  0
  1  2  1  0  0  0  0
  1  5  1  0  0  0  0
  2  6  1  0  0  0  0
  2  8  1  0  0  0  0
  4  1  1  0  0  0  0
  6 10  1  0  0  0  0
  7  2  1  0  0  0  0
  9  6  1  0  0  0  0
  9 12  1  0  0  0  0
 11  6  1  0  0  0  0
 13  9  1  0  0  0  0
 14  9  1  0  0  0  0
M  END
$$$$
