butane_opt
 OpenBabel08242015423D

 14 13  0  0  0  0  0  0  0  0999 V2000
   -3.9704    0.2794   -0.0105 C   0  0  0  0  0  0  0  0  0  0  0  0
   -2.7085   -0.6243    0.1027 C   0  0  0  0  0  0  0  0  0  0  0  0
   -4.8902   -0.3141   -0.2072 H   0  0  0  0  0  0  0  0  0  0  0  0
   -3.8072    0.7848   -0.8894 H   0  0  0  0  0  0  0  0  0  0  0  0
   -4.2458    1.0443    0.8619 H   0  0  0  0  0  0  0  0  0  0  0  0
   -1.3685    0.1547    0.0354 C   0  0  0  0  0  0  0  0  0  0  0  0
   -2.6875   -1.2753   -0.7261 H   0  0  0  0  0  0  0  0  0  0  0  0
   -2.7235   -1.2492    1.0413 H   0  0  0  0  0  0  0  0  0  0  0  0
   -0.1551   -0.6784   -0.0080 C   0  0  0  0  0  0  0  0  0  0  0  0
   -1.3283    0.8581    0.9139 H   0  0  0  0  0  0  0  0  0  0  0  0
   -1.3954    0.8682   -0.9111 H   0  0  0  0  0  0  0  0  0  0  0  0
   -0.1056   -1.2642    0.8224 H   0  0  0  0  0  0  0  0  0  0  0  0
    0.7517   -0.0881   -0.0054 H   0  0  0  0  0  0  0  0  0  0  0  0
   -0.1594   -1.4249   -0.8834 H   0  0  0  0  0  0  0  0  0  0  0  0
  1  2  1  0  0  0  0
  1  5  1  0  0  0  0
  2  8  1  0  0  0  0
  3  1  1  0  0  0  0
  4  1  1  0  0  0  0
  6  2  1  0  0  0  0
  6 10  1  0  0  0  0
  7  2  1  0  0  0  0
  9 13  1  0  0  0  0
  9  6  1  0  0  0  0
  9 12  1  0  0  0  0
 11  6  1  0  0  0  0
 14  9  1  0  0  0  0
M  END
$$$$
