butane_opt
 OpenBabel08242015423D

 14 13  0  0  0  0  0  0  0  0999 V2000
   -3.9377    0.2522    0.0291 C   0  0  0  0  0  0  0  0  0  0  0  0
   -2.7009   -0.5950    0.0110 C   0  0  0  0  0  0  0  0  0  0  0  0
   -4.8654   -0.3758    0.0676 H   0  0  0  0  0  0  0  0  0  0  0  0
   -3.9431    0.8808   -0.8484 H   0  0  0  0  0  0  0  0  0  0  0  0
   -3.8881    0.9284    0.9043 H   0  0  0  0  0  0  0  0  0  0  0  0
   -1.4025    0.1949    0.0164 C   0  0  0  0  0  0  0  0  0  0  0  0
   -2.7230   -1.2882   -0.8800 H   0  0  0  0  0  0  0  0  0  0  0  0
   -2.7308   -1.1904    0.8874 H   0  0  0  0  0  0  0  0  0  0  0  0
   -0.1683   -0.7021    0.0462 C   0  0  0  0  0  0  0  0  0  0  0  0
   -1.3942    0.8068    0.8194 H   0  0  0  0  0  0  0  0  0  0  0  0
   -1.4244    0.8348   -0.8859 H   0  0  0  0  0  0  0  0  0  0  0  0
   -0.0647   -1.4199    0.9915 H   0  0  0  0  0  0  0  0  0  0  0  0
    0.7412   -0.1346   -0.0600 H   0  0  0  0  0  0  0  0  0  0  0  0
   -0.2144   -1.3127   -0.7707 H   0  0  0  0  0  0  0  0  0  0  0  0
  1  3  1  0  0  0  0
  1  5  1  0  0  0  0
  2  6  1  0  0  0  0
  2  1  1  0  0  0  0
  2  8  1  0  0  0  0
  4  1  1  0  0  0  0
  6  9  1  0  0  0  0
  6 10  1  0  0  0  0
  7  2  1  0  0  0  0
  9 12  1  0  0  0  0
 11  6  1  0  0  0  0
 13  9  1  0  0  0  0
 14  9  1  0  0  0  0
M  END
$$$$
