14
butane_opt
C  -3.944361   0.281149   0.044507
C  -2.708236  -0.624592  -0.013523
H  -4.849029  -0.326038  -0.024504
H  -4.030014   0.825615  -0.744489
H  -3.880142   1.034816   0.977673
C  -1.397458   0.163547   0.003843
H  -2.662716  -1.359633  -0.914838
H  -2.647025  -1.164279   0.782686
C  -0.186167  -0.677548   0.073312
H  -1.336231   0.752231   0.819232
H  -1.367598   0.814746  -0.911208
H   0.014048  -1.547937   1.108084
H   0.813652  -0.034018  -0.280056
H  -0.265125  -1.155177  -0.639337
