butane_opt
 OpenBabel08242015423D

 14 13  0  0  0  0  0  0  0  0999 V2000
   -3.9616    0.2470    0.0524 C   0  0  0  0  0  0  0  0  0  0  0  0
   -2.7170   -0.5846    0.0258 C   0  0  0  0  0  0  0  0  0  0  0  0
   -4.8962   -0.3751    0.0664 H   0  0  0  0  0  0  0  0  0  0  0  0
   -3.9927    0.7622   -0.7770 H   0  0  0  0  0  0  0  0  0  0  0  0
   -3.9184    0.9201    0.9123 H   0  0  0  0  0  0  0  0  0  0  0  0
   -1.3987    0.2111   -0.0518 C   0  0  0  0  0  0  0  0  0  0  0  0
   -2.7957   -1.2991   -0.8482 H   0  0  0  0  0  0  0  0  0  0  0  0
   -2.7251   -1.1385    0.8540 H   0  0  0  0  0  0  0  0  0  0  0  0
   -0.1391   -0.7197    0.0675 C   0  0  0  0  0  0  0  0  0  0  0  0
   -1.4408    0.8022    0.7810 H   0  0  0  0  0  0  0  0  0  0  0  0
   -1.3160    0.9014   -0.9936 H   0  0  0  0  0  0  0  0  0  0  0  0
   -0.1940   -1.2521    0.9031 H   0  0  0  0  0  0  0  0  0  0  0  0
    0.7660   -0.1492    0.1854 H   0  0  0  0  0  0  0  0  0  0  0  0
    0.0884   -1.4955   -0.7848 H   0  0  0  0  0  0  0  0  0  0  0  0
  1  3  1  0  0  0  0
  1  5  1  0  0  0  0
  2  1  1  0  0  0  0
  2  8  1  0  0  0  0
  4  1  1  0  0  0  0
  6  2  1  0  0  0  0
  6  9  1  0  0  0  0
  6 10  1  0  0  0  0
  7  2  1  0  0  0  0
  9 13  1  0  0  0  0
  9 12  1  0  0  0  0
 11  6  1  0  0  0  0
 14  9  1  0  0  0  0
M  END
$$$$
