14
butane_opt
C  -3.970385   0.279396  -0.010537
C  -2.708495  -0.624284   0.102725
H  -4.890229  -0.314085  -0.207201
H  -3.807231   0.784823  -0.889402
H  -4.245755   1.044288   0.861852
C  -1.368530   0.154661   0.035371
H  -2.687485  -1.275253  -0.726096
H  -2.723531  -1.249231   1.041309
C  -0.155106  -0.678379  -0.008049
H  -1.328311   0.858091   0.913855
H  -1.395351   0.868245  -0.911091
H  -0.105550  -1.264249   0.822436
H   0.751706  -0.088091  -0.005406
H  -0.159430  -1.424936  -0.883421
