14
butane_opt
C  -3.923536   0.263013   0.024716
C  -2.703364  -0.610781   0.024018
H  -4.837565  -0.330017   0.067045
H  -3.998628   0.858756  -0.853618
H  -3.945998   0.936074   0.880621
C  -1.406428   0.190887   0.015637
H  -2.703647  -1.355576  -0.849979
H  -2.721851  -1.230207   0.907818
C  -0.168946  -0.700752   0.038186
H  -1.442264   0.852435   0.844439
H  -1.366038   0.861950  -0.923723
H  -0.122231  -1.378284   0.954530
H   0.747060  -0.084734  -0.011628
H  -0.201601  -1.307892  -0.796497
