14
butane_opt
C  -3.965772   0.290231   0.070868
C  -2.713695  -0.649141  -0.013671
H  -4.791255  -0.222814  -0.036071
H  -4.028549   0.818463  -0.747392
H  -4.032405   0.994137   0.935558
C  -1.391547   0.167230  -0.031472
H  -2.724053  -1.465131  -0.945755
H  -2.646498  -1.146982   0.771075
C  -0.154037  -0.677092   0.084511
H  -1.376407   0.804943   0.820286
H  -1.291069   0.824876  -0.916824
H  -0.035011  -1.477436   1.112410
H   0.779423  -0.024862  -0.221627
H  -0.199245  -1.132655  -0.635205
