butane_opt
 OpenBabel08242015423D

 14 13  0  0  0  0  0  0  0  0999 V2000
   -3.9658    0.2902    0.0709 C   0  0  0  0  0  0  0  0  0  0  0  0
   -2.7137   -0.6491   -0.0137 C   0  0  0  0  0  0  0  0  0  0  0  0
   -4.7913   -0.2228   -0.0361 H   0  0  0  0  0  0  0  0  0  0  0  0
   -4.0285    0.8185   -0.7474 H   0  0  0  0  0  0  0  0  0  0  0  0
   -4.0324    0.9941    0.9356 H   0  0  0  0  0  0  0  0  0  0  0  0
   -1.3915    0.1672   -0.0315 C   0  0  0  0  0  0  0  0  0  0  0  0
   -2.7241   -1.4651   -0.9458 H   0  0  0  0  0  0  0  0  0  0  0  0
   -2.6465   -1.1470    0.7711 H   0  0  0  0  0  0  0  0  0  0  0  0
   -0.1540   -0.6771    0.0845 C   0  0  0  0  0  0  0  0  0  0  0  0
   -1.3764    0.8049    0.8203 H   0  0  0  0  0  0  0  0  0  0  0  0
   -1.2911    0.8249   -0.9168 H   0  0  0  0  0  0  0  0  0  0  0  0
   -0.0350   -1.4774    1.1124 H   0  0  0  0  0  0  0  0  0  0  0  0
    0.7794   -0.0249   -0.2216 H   0  0  0  0  0  0  0  0  0  0  0  0
   -0.1992   -1.1327   -0.6352 H   0  0  0  0  0  0  0  0  0  0  0  0
  1  5  1  0  0  0  0
  2  1  1  0  0  0  0
  2  8  1  0  0  0  0
  3  1  1  0  0  0  0
  4  1  1  0  0  0  0
  6  2  1  0  0  0  0
  6  9  1  0  0  0  0
  6 10  1  0  0  0  0
  7  2  1  0  0  0  0
  9 12  1  0  0  0  0
 11  6  1  0  0  0  0
 13  9  1  0  0  0  0
 14  9  1  0  0  0  0
M  END
$$$$
