14
butane_opt
C  -3.966359   0.264339  -0.014158
C  -2.699928  -0.616028   0.094995
H  -4.845431  -0.308479   0.036301
H  -3.975209   1.046657  -1.042528
H  -4.039570   0.749181   0.711260
C  -1.400167   0.168978   0.045309
H  -2.652648  -1.221494  -0.696839
H  -2.738343  -1.244321   0.984310
C  -0.153115  -0.690905  -0.006102
H  -1.372932   0.894977   0.929419
H  -1.389849   0.797158  -0.788001
H  -0.115990  -1.089211   0.706283
H   0.825571  -0.078855   0.125270
H  -0.089025  -1.532090  -1.008605
