butane_opt
 OpenBabel08242015423D

 14 13  0  0  0  0  0  0  0  0999 V2000
   -3.9846    0.2746    0.0879 C   0  0  0  0  0  0  0  0  0  0  0  0
   -2.7036   -0.6215   -0.0507 C   0  0  0  0  0  0  0  0  0  0  0  0
   -4.8334   -0.2918    0.3048 H   0  0  0  0  0  0  0  0  0  0  0  0
   -4.0299    1.0092   -0.8703 H   0  0  0  0  0  0  0  0  0  0  0  0
   -3.9072    0.8686    0.8604 H   0  0  0  0  0  0  0  0  0  0  0  0
   -1.3760    0.1642   -0.0485 C   0  0  0  0  0  0  0  0  0  0  0  0
   -2.7632   -1.3539   -0.9422 H   0  0  0  0  0  0  0  0  0  0  0  0
   -2.6578   -1.2353    0.8293 H   0  0  0  0  0  0  0  0  0  0  0  0
   -0.1555   -0.6782    0.0897 C   0  0  0  0  0  0  0  0  0  0  0  0
   -1.4013    0.9049    0.8451 H   0  0  0  0  0  0  0  0  0  0  0  0
   -1.3205    0.7439   -0.9432 H   0  0  0  0  0  0  0  0  0  0  0  0
   -0.2113   -1.3926    1.0834 H   0  0  0  0  0  0  0  0  0  0  0  0
    0.7650   -0.0372    0.1062 H   0  0  0  0  0  0  0  0  0  0  0  0
   -0.0494   -1.3429   -0.7744 H   0  0  0  0  0  0  0  0  0  0  0  0
  1  3  1  0  0  0  0
  1  5  1  0  0  0  0
  2  6  1  0  0  0  0
  2  1  1  0  0  0  0
  2  8  1  0  0  0  0
  4  1  1  0  0  0  0
  6  9  1  0  0  0  0
  6 10  1  0  0  0  0
  7  2  1  0  0  0  0
  9 13  1  0  0  0  0
  9 12  1  0  0  0  0
 11  6  1  0  0  0  0
 14  9  1  0  0  0  0
M  END
$$$$
