14
butane_opt
C  -3.964482   0.249946  -0.035272
C  -2.704264  -0.605273   0.086920
H  -4.815033  -0.282611  -0.038792
H  -3.931477   0.894351  -0.960599
H  -4.023438   0.894619   0.791320
C  -1.393152   0.203260   0.084019
H  -2.684026  -1.357515  -0.777825
H  -2.820343  -1.266251   0.978056
C  -0.144716  -0.693265  -0.021577
H  -1.341117   0.875425   0.980497
H  -1.516496   0.823131  -0.757150
H   0.018484  -1.400902   0.901914
H   0.738705  -0.154036  -0.233006
H  -0.178769  -1.332695  -0.808346
