14
butane_opt
C  -3.950176   0.259927   0.033208
C  -2.707203  -0.605896   0.023449
H  -4.901870  -0.372169  -0.093292
H  -3.958714   0.736881  -0.755311
H  -3.997652   1.060705   1.001868
C  -1.395557   0.191425  -0.015975
H  -2.720375  -1.257000  -0.790475
H  -2.718629  -1.260636   0.926948
C  -0.148577  -0.700611   0.054301
H  -1.393281   0.821705   0.790980
H  -1.430505   0.853974  -0.942928
H  -0.132630  -1.323549   0.965728
H   0.751726  -0.152500  -0.012339
H  -0.094756  -1.324972  -0.774780
