14
butane_opt
C  -3.922303   0.253528   0.057172
C  -2.714755  -0.594522  -0.001809
H  -4.862109  -0.358717   0.004388
H  -3.989659   0.806499  -0.778167
H  -3.900786   0.930665   0.966550
C  -1.404354   0.191211  -0.029742
H  -2.685505  -1.346316  -0.886654
H  -2.685893  -1.093437   0.791199
C  -0.171119  -0.702809   0.066481
H  -1.371831   0.909007   0.858106
H  -1.373268   0.793108  -0.940650
H  -0.137580  -1.510665   1.100859
H   0.707436  -0.185736  -0.098975
H  -0.161567  -1.192991  -0.658539
