butane_opt
 OpenBabel08242015423D

 14 13  0  0  0  0  0  0  0  0999 V2000
   -3.9573    0.2511    0.0722 C   0  0  0  0  0  0  0  0  0  0  0  0
   -2.7324   -0.5994   -0.0302 C   0  0  0  0  0  0  0  0  0  0  0  0
   -4.9174   -0.3687    0.2899 H   0  0  0  0  0  0  0  0  0  0  0  0
   -4.0229    1.0263   -0.9108 H   0  0  0  0  0  0  0  0  0  0  0  0
   -3.7775    0.8721    0.9154 H   0  0  0  0  0  0  0  0  0  0  0  0
   -1.3989    0.2013   -0.0326 C   0  0  0  0  0  0  0  0  0  0  0  0
   -2.7941   -1.4106   -0.9634 H   0  0  0  0  0  0  0  0  0  0  0  0
   -2.6362   -1.1633    0.7766 H   0  0  0  0  0  0  0  0  0  0  0  0
   -0.1380   -0.7139    0.0925 C   0  0  0  0  0  0  0  0  0  0  0  0
   -1.4709    0.8590    0.7644 H   0  0  0  0  0  0  0  0  0  0  0  0
   -1.2683    0.8637   -0.9872 H   0  0  0  0  0  0  0  0  0  0  0  0
   -0.0906   -1.3282    1.0072 H   0  0  0  0  0  0  0  0  0  0  0  0
    0.7667   -0.1438    0.0989 H   0  0  0  0  0  0  0  0  0  0  0  0
   -0.0918   -1.3461   -0.7850 H   0  0  0  0  0  0  0  0  0  0  0  0
  1  3  1  0  0  0  0
  1  5  1  0  0  0  0
  2  1  1  0  0  0  0
  2  8  1  0  0  0  0
  4  1  1  0  0  0  0
  6  2  1  0  0  0  0
  6  9  1  0  0  0  0
  6 10  1  0  0  0  0
  7  2  1  0  0  0  0
  9 13  1  0  0  0  0
  9 12  1  0  0  0  0
 11  6  1  0  0  0  0
 14  9  1  0  0  0  0
M  END
$$$$
