14
butane_opt
C  -3.974534   0.266736   0.001820
C  -2.676970  -0.636794   0.036011
H  -4.844890  -0.328330   0.065117
H  -3.992420   0.955830  -0.946824
H  -3.963401   0.966138   0.862322
C  -1.398516   0.192363   0.042206
H  -2.730147  -1.334797  -0.789593
H  -2.680652  -1.278621   0.909841
C  -0.164208  -0.689325   0.007152
H  -1.314973   0.951323   0.967114
H  -1.417540   0.757346  -0.785879
H  -0.092496  -1.475863   0.981862
H   0.757141  -0.087779  -0.095629
H  -0.176913  -1.177176  -0.758658
