butane_opt
 OpenBabel08242015423D

 14 13  0  0  0  0  0  0  0  0999 V2000
   -3.9341    0.2825   -0.0300 C   0  0  0  0  0  0  0  0  0  0  0  0
   -2.6857   -0.6190    0.1117 C   0  0  0  0  0  0  0  0  0  0  0  0
   -4.8138   -0.3110    0.0432 H   0  0  0  0  0  0  0  0  0  0  0  0
   -4.0035    0.9467   -0.9585 H   0  0  0  0  0  0  0  0  0  0  0  0
   -4.0341    0.8499    0.7419 H   0  0  0  0  0  0  0  0  0  0  0  0
   -1.4005    0.1514    0.0393 C   0  0  0  0  0  0  0  0  0  0  0  0
   -2.7047   -1.2183   -0.6777 H   0  0  0  0  0  0  0  0  0  0  0  0
   -2.7234   -1.3154    1.0000 H   0  0  0  0  0  0  0  0  0  0  0  0
   -0.1775   -0.6863   -0.0094 C   0  0  0  0  0  0  0  0  0  0  0  0
   -1.3695    0.8361    0.8800 H   0  0  0  0  0  0  0  0  0  0  0  0
   -1.3671    0.7865   -0.8712 H   0  0  0  0  0  0  0  0  0  0  0  0
   -0.2309   -1.0019    0.6991 H   0  0  0  0  0  0  0  0  0  0  0  0
    0.7838   -0.0376    0.2572 H   0  0  0  0  0  0  0  0  0  0  0  0
   -0.1867   -1.5498   -1.0446 H   0  0  0  0  0  0  0  0  0  0  0  0
  1  3  1  0  0  0  0
  1  2  1  0  0  0  0
  1  5  1  0  0  0  0
  2  8  1  0  0  0  0
  4  1  1  0  0  0  0
  6  2  1  0  0  0  0
  6 10  1  0  0  0  0
  7  2  1  0  0  0  0
  9  6  1  0  0  0  0
  9 13  1  0  0  0  0
  9 12  1  0  0  0  0
 11  6  1  0  0  0  0
 14  9  1  0  0  0  0
M  END
$$$$
