14
butane_opt
C  -3.979959   0.287120   0.052778
C  -2.690798  -0.641555   0.009415
H  -4.859376  -0.288748  -0.112926
H  -3.963744   0.698906  -0.662955
H  -4.034722   1.095188   0.999698
C  -1.396589   0.167155  -0.032923
H  -2.746057  -1.307820  -0.832058
H  -2.606851  -1.258238   0.901975
C  -0.159248  -0.678254   0.069223
H  -1.396923   0.724353   0.676619
H  -1.287683   0.891763  -1.002231
H  -0.073950  -1.300134   0.965847
H   0.771942  -0.043364   0.109039
H  -0.122285  -1.298330  -0.763234
