butane_opt
 OpenBabel08242015423D

 14 13  0  0  0  0  0  0  0  0999 V2000
   -3.9361    0.2729    0.0078 C   0  0  0  0  0  0  0  0  0  0  0  0
   -2.6837   -0.6199    0.0431 C   0  0  0  0  0  0  0  0  0  0  0  0
   -4.8726   -0.3241    0.1319 H   0  0  0  0  0  0  0  0  0  0  0  0
   -4.0379    0.9663   -0.9378 H   0  0  0  0  0  0  0  0  0  0  0  0
   -3.9110    0.9194    0.8907 H   0  0  0  0  0  0  0  0  0  0  0  0
   -1.3896    0.1625    0.0094 C   0  0  0  0  0  0  0  0  0  0  0  0
   -2.6473   -1.2587   -0.7432 H   0  0  0  0  0  0  0  0  0  0  0  0
   -2.7465   -1.3438    0.9865 H   0  0  0  0  0  0  0  0  0  0  0  0
   -0.1849   -0.6813    0.0152 C   0  0  0  0  0  0  0  0  0  0  0  0
   -1.3864    0.8530    0.9034 H   0  0  0  0  0  0  0  0  0  0  0  0
   -1.3685    0.8337   -0.8973 H   0  0  0  0  0  0  0  0  0  0  0  0
   -0.2630   -1.1954    0.8694 H   0  0  0  0  0  0  0  0  0  0  0  0
    0.6829   -0.0868    0.2640 H   0  0  0  0  0  0  0  0  0  0  0  0
   -0.1357   -1.4532   -0.9448 H   0  0  0  0  0  0  0  0  0  0  0  0
  1  2  1  0  0  0  0
  1  3  1  0  0  0  0
  1  5  1  0  0  0  0
  2  8  1  0  0  0  0
  4  1  1  0  0  0  0
  6  9  1  0  0  0  0
  6  2  1  0  0  0  0
  6 10  1  0  0  0  0
  7  2  1  0  0  0  0
  9 13  1  0  0  0  0
  9 12  1  0  0  0  0
 11  6  1  0  0  0  0
 14  9  1  0  0  0  0
M  END
$$$$
