butane_opt
 OpenBabel08242015423D

 14 13  0  0  0  0  0  0  0  0999 V2000
   -3.9645    0.2499   -0.0353 C   0  0  0  0  0  0  0  0  0  0  0  0
   -2.7043   -0.6053    0.0869 C   0  0  0  0  0  0  0  0  0  0  0  0
   -4.8150   -0.2826   -0.0388 H   0  0  0  0  0  0  0  0  0  0  0  0
   -3.9315    0.8944   -0.9606 H   0  0  0  0  0  0  0  0  0  0  0  0
   -4.0234    0.8946    0.7913 H   0  0  0  0  0  0  0  0  0  0  0  0
   -1.3932    0.2033    0.0840 C   0  0  0  0  0  0  0  0  0  0  0  0
   -2.6840   -1.3575   -0.7778 H   0  0  0  0  0  0  0  0  0  0  0  0
   -2.8203   -1.2663    0.9781 H   0  0  0  0  0  0  0  0  0  0  0  0
   -0.1447   -0.6933   -0.0216 C   0  0  0  0  0  0  0  0  0  0  0  0
   -1.3411    0.8754    0.9805 H   0  0  0  0  0  0  0  0  0  0  0  0
   -1.5165    0.8231   -0.7571 H   0  0  0  0  0  0  0  0  0  0  0  0
    0.0185   -1.4009    0.9019 H   0  0  0  0  0  0  0  0  0  0  0  0
    0.7387   -0.1540   -0.2330 H   0  0  0  0  0  0  0  0  0  0  0  0
   -0.1788   -1.3327   -0.8083 H   0  0  0  0  0  0  0  0  0  0  0  0
  1  2  1  0  0  0  0
  1  5  1  0  0  0  0
  2  8  1  0  0  0  0
  3  1  1  0  0  0  0
  4  1  1  0  0  0  0
  6  2  1  0  0  0  0
  6 10  1  0  0  0  0
  7  2  1  0  0  0  0
  9  6  1  0  0  0  0
  9 12  1  0  0  0  0
 11  6  1  0  0  0  0
 13  9  1  0  0  0  0
 14  9  1  0  0  0  0
M  END
$$$$
