14
butane_opt
C  -3.936107   0.272939   0.007836
C  -2.683651  -0.619919   0.043105
H  -4.872607  -0.324118   0.131925
H  -4.037891   0.966293  -0.937756
H  -3.911023   0.919398   0.890689
C  -1.389622   0.162513   0.009369
H  -2.647252  -1.258668  -0.743177
H  -2.746533  -1.343758   0.986477
C  -0.184866  -0.681348   0.015231
H  -1.386388   0.853011   0.903444
H  -1.368479   0.833703  -0.897275
H  -0.263012  -1.195390   0.869412
H   0.682941  -0.086829   0.264013
H  -0.135717  -1.453214  -0.944784
