butane_opt
 OpenBabel08242015423D

 14 13  0  0  0  0  0  0  0  0999 V2000
   -3.9373    0.2649    0.0424 C   0  0  0  0  0  0  0  0  0  0  0  0
   -2.7062   -0.6108    0.0105 C   0  0  0  0  0  0  0  0  0  0  0  0
   -4.8755   -0.3691   -0.0330 H   0  0  0  0  0  0  0  0  0  0  0  0
   -3.9559    0.7978   -0.8088 H   0  0  0  0  0  0  0  0  0  0  0  0
   -3.9233    0.9885    0.9514 H   0  0  0  0  0  0  0  0  0  0  0  0
   -1.4009    0.1912   -0.0147 C   0  0  0  0  0  0  0  0  0  0  0  0
   -2.7057   -1.3236   -0.8531 H   0  0  0  0  0  0  0  0  0  0  0  0
   -2.7054   -1.2030    0.8740 H   0  0  0  0  0  0  0  0  0  0  0  0
   -0.1599   -0.7013    0.0527 C   0  0  0  0  0  0  0  0  0  0  0  0
   -1.4003    0.8892    0.8522 H   0  0  0  0  0  0  0  0  0  0  0  0
   -1.4111    0.8088   -0.8600 H   0  0  0  0  0  0  0  0  0  0  0  0
   -0.1176   -1.4471    1.0347 H   0  0  0  0  0  0  0  0  0  0  0  0
    0.7142   -0.1291   -0.1072 H   0  0  0  0  0  0  0  0  0  0  0  0
   -0.1820   -1.2162   -0.6814 H   0  0  0  0  0  0  0  0  0  0  0  0
  1  5  1  0  0  0  0
  2  1  1  0  0  0  0
  2  8  1  0  0  0  0
  3  1  1  0  0  0  0
  4  1  1  0  0  0  0
  6  2  1  0  0  0  0
  6  9  1  0  0  0  0
  6 10  1  0  0  0  0
  7  2  1  0  0  0  0
  9 12  1  0  0  0  0
 11  6  1  0  0  0  0
 13  9  1  0  0  0  0
 14  9  1  0  0  0  0
M  END
$$$$
