butane_opt
 OpenBabel08242015423D

 14 13  0  0  0  0  0  0  0  0999 V2000
   -3.9223    0.2535    0.0572 C   0  0  0  0  0  0  0  0  0  0  0  0
   -2.7148   -0.5945   -0.0018 C   0  0  0  0  0  0  0  0  0  0  0  0
   -4.8621   -0.3587    0.0044 H   0  0  0  0  0  0  0  0  0  0  0  0
   -3.9897    0.8065   -0.7782 H   0  0  0  0  0  0  0  0  0  0  0  0
   -3.9008    0.9307    0.9666 H   0  0  0  0  0  0  0  0  0  0  0  0
   -1.4044    0.1912   -0.0297 C   0  0  0  0  0  0  0  0  0  0  0  0
   -2.6855   -1.3463   -0.8867 H   0  0  0  0  0  0  0  0  0  0  0  0
   -2.6859   -1.0934    0.7912 H   0  0  0  0  0  0  0  0  0  0  0  0
   -0.1711   -0.7028    0.0665 C   0  0  0  0  0  0  0  0  0  0  0  0
   -1.3718    0.9090    0.8581 H   0  0  0  0  0  0  0  0  0  0  0  0
   -1.3733    0.7931   -0.9406 H   0  0  0  0  0  0  0  0  0  0  0  0
   -0.1376   -1.5107    1.1009 H   0  0  0  0  0  0  0  0  0  0  0  0
    0.7074   -0.1857   -0.0990 H   0  0  0  0  0  0  0  0  0  0  0  0
   -0.1616   -1.1930   -0.6585 H   0  0  0  0  0  0  0  0  0  0  0  0
  1  5  1  0  0  0  0
  2  1  1  0  0  0  0
  2  8  1  0  0  0  0
  3  1  1  0  0  0  0
  4  1  1  0  0  0  0
  6  2  1  0  0  0  0
  6  9  1  0  0  0  0
  6 10  1  0  0  0  0
  7  2  1  0  0  0  0
  9 12  1  0  0  0  0
 11  6  1  0  0  0  0
 13  9  1  0  0  0  0
 14  9  1  0  0  0  0
M  END
$$$$
