butane_opt
 OpenBabel08242015423D

 14 13  0  0  0  0  0  0  0  0999 V2000
   -3.9800    0.2871    0.0528 C   0  0  0  0  0  0  0  0  0  0  0  0
   -2.6908   -0.6416    0.0094 C   0  0  0  0  0  0  0  0  0  0  0  0
   -4.8594   -0.2887   -0.1129 H   0  0  0  0  0  0  0  0  0  0  0  0
   -3.9637    0.6989   -0.6630 H   0  0  0  0  0  0  0  0  0  0  0  0
   -4.0347    1.0952    0.9997 H   0  0  0  0  0  0  0  0  0  0  0  0
   -1.3966    0.1672   -0.0329 C   0  0  0  0  0  0  0  0  0  0  0  0
   -2.7461   -1.3078   -0.8321 H   0  0  0  0  0  0  0  0  0  0  0  0
   -2.6069   -1.2582    0.9020 H   0  0  0  0  0  0  0  0  0  0  0  0
   -0.1592   -0.6783    0.0692 C   0  0  0  0  0  0  0  0  0  0  0  0
   -1.3969    0.7244    0.6766 H   0  0  0  0  0  0  0  0  0  0  0  0
   -1.2877    0.8918   -1.0022 H   0  0  0  0  0  0  0  0  0  0  0  0
   -0.0740   -1.3001    0.9658 H   0  0  0  0  0  0  0  0  0  0  0  0
    0.7719   -0.0434    0.1090 H   0  0  0  0  0  0  0  0  0  0  0  0
   -0.1223   -1.2983   -0.7632 H   0  0  0  0  0  0  0  0  0  0  0  0
  1  5  1  0  0  0  0
  2  1  1  0  0  0  0
  2  8  1  0  0  0  0
  3  1  1  0  0  0  0
  4  1  1  0  0  0  0
  6  2  1  0  0  0  0
  6  9  1  0  0  0  0
  6 10  1  0  0  0  0
  7  2  1  0  0  0  0
  9 13  1  0  0  0  0
  9 12  1  0  0  0  0
 11  6  1  0  0  0  0
 14  9  1  0  0  0  0
M  END
$$$$
