14
butane_opt
C  -3.976084   0.279153   0.051307
C  -2.690462  -0.655407  -0.008370
H  -4.852817  -0.269882  -0.094967
H  -4.016414   0.789454  -0.783192
H  -3.948236   1.084162   1.015744
C  -1.372911   0.188033  -0.012032
H  -2.773206  -1.251303  -0.851819
H  -2.643637  -1.289736   0.870274
C  -0.164014  -0.682190   0.063947
H  -1.421744   0.845597   0.822430
H  -1.342189   0.826054  -0.908610
H  -0.094251  -1.422136   1.037811
H   0.713423  -0.131452  -0.145788
H  -0.203647  -1.203395  -0.648220
