14
butane_opt
C  -3.945979   0.261479   0.019609
C  -2.704707  -0.636658  -0.002495
H  -4.840337  -0.284850   0.047576
H  -4.135639   0.836696  -0.758504
H  -4.004367   1.090192   0.989279
C  -1.400459   0.181832   0.013619
H  -2.690328  -1.308133  -0.846832
H  -2.673459  -1.222130   0.843696
C  -0.149297  -0.682421   0.050297
H  -1.387337   0.853670   0.854982
H  -1.381355   0.812778  -0.833961
H  -0.020085  -1.534847   1.087314
H   0.767390  -0.092328  -0.220375
H  -0.242624  -1.113592  -0.661293
