butane_opt
 OpenBabel08242015423D

 14 13  0  0  0  0  0  0  0  0999 V2000
   -3.9508    0.2824   -0.0286 C   0  0  0  0  0  0  0  0  0  0  0  0
   -2.7151   -0.6594    0.0627 C   0  0  0  0  0  0  0  0  0  0  0  0
   -4.8445   -0.2436    0.2205 H   0  0  0  0  0  0  0  0  0  0  0  0
   -4.1393    1.1159   -1.0682 H   0  0  0  0  0  0  0  0  0  0  0  0
   -3.9605    0.8531    0.7734 H   0  0  0  0  0  0  0  0  0  0  0  0
   -1.3866    0.1777    0.0559 C   0  0  0  0  0  0  0  0  0  0  0  0
   -2.6470   -1.2971   -0.7433 H   0  0  0  0  0  0  0  0  0  0  0  0
   -2.7521   -1.3020    1.0286 H   0  0  0  0  0  0  0  0  0  0  0  0
   -0.1564   -0.6856   -0.0113 C   0  0  0  0  0  0  0  0  0  0  0  0
   -1.2583    0.9336    0.9960 H   0  0  0  0  0  0  0  0  0  0  0  0
   -1.4399    0.7191   -0.7687 H   0  0  0  0  0  0  0  0  0  0  0  0
   -0.0915   -1.1975    0.8345 H   0  0  0  0  0  0  0  0  0  0  0  0
    0.7984   -0.0206    0.0937 H   0  0  0  0  0  0  0  0  0  0  0  0
   -0.1842   -1.4021   -0.8845 H   0  0  0  0  0  0  0  0  0  0  0  0
  1  2  1  0  0  0  0
  1  3  1  0  0  0  0
  1  5  1  0  0  0  0
  2  8  1  0  0  0  0
  4  1  1  0  0  0  0
  6  2  1  0  0  0  0
  6 10  1  0  0  0  0
  7  2  1  0  0  0  0
  9  6  1  0  0  0  0
  9 13  1  0  0  0  0
  9 12  1  0  0  0  0
 11  6  1  0  0  0  0
 14  9  1  0  0  0  0
M  END
$$$$
