14
butane_opt
C  -3.958844   0.257359   0.000044
C  -2.682158  -0.616476   0.057276
H  -4.879785  -0.336346   0.111205
H  -3.996566   0.994979  -0.906176
H  -3.838818   0.886724   0.847096
C  -1.408228   0.178233   0.000470
H  -2.594816  -1.186907  -0.698574
H  -2.732958  -1.276568   1.004214
C  -0.174058  -0.692285   0.020875
H  -1.369975   0.887673   0.906531
H  -1.365505   0.780494  -0.887856
H  -0.233737  -1.130696   0.814856
H   0.768501  -0.072809   0.249581
H  -0.102269  -1.549362  -0.971793
