butane_opt
 OpenBabel08242015423D

 14 13  0  0  0  0  0  0  0  0999 V2000
   -3.9460    0.2615    0.0196 C   0  0  0  0  0  0  0  0  0  0  0  0
   -2.7047   -0.6367   -0.0025 C   0  0  0  0  0  0  0  0  0  0  0  0
   -4.8403   -0.2848    0.0476 H   0  0  0  0  0  0  0  0  0  0  0  0
   -4.1356    0.8367   -0.7585 H   0  0  0  0  0  0  0  0  0  0  0  0
   -4.0044    1.0902    0.9893 H   0  0  0  0  0  0  0  0  0  0  0  0
   -1.4005    0.1818    0.0136 C   0  0  0  0  0  0  0  0  0  0  0  0
   -2.6903   -1.3081   -0.8468 H   0  0  0  0  0  0  0  0  0  0  0  0
   -2.6735   -1.2221    0.8437 H   0  0  0  0  0  0  0  0  0  0  0  0
   -0.1493   -0.6824    0.0503 C   0  0  0  0  0  0  0  0  0  0  0  0
   -1.3873    0.8537    0.8550 H   0  0  0  0  0  0  0  0  0  0  0  0
   -1.3814    0.8128   -0.8340 H   0  0  0  0  0  0  0  0  0  0  0  0
   -0.0201   -1.5348    1.0873 H   0  0  0  0  0  0  0  0  0  0  0  0
    0.7674   -0.0923   -0.2204 H   0  0  0  0  0  0  0  0  0  0  0  0
   -0.2426   -1.1136   -0.6613 H   0  0  0  0  0  0  0  0  0  0  0  0
  1  3  1  0  0  0  0
  1  5  1  0  0  0  0
  2  6  1  0  0  0  0
  2  1  1  0  0  0  0
  2  8  1  0  0  0  0
  4  1  1  0  0  0  0
  6  9  1  0  0  0  0
  6 10  1  0  0  0  0
  7  2  1  0  0  0  0
  9 12  1  0  0  0  0
 11  6  1  0  0  0  0
 13  9  1  0  0  0  0
 14  9  1  0  0  0  0
M  END
$$$$
