14
butane_opt
C  -3.961620   0.258813  -0.006144
C  -2.692932  -0.626989   0.056322
H  -4.875919  -0.308926   0.221315
H  -4.059430   1.094095  -1.065256
H  -4.023412   0.726709   0.744752
C  -1.402394   0.195473   0.057231
H  -2.684963  -1.292309  -0.777498
H  -2.731347  -1.204198   0.916698
C  -0.156508  -0.694233   0.003417
H  -1.320297   0.943336   0.910541
H  -1.305635   0.794614  -0.831029
H  -0.053163  -1.247085   0.842868
H   0.724107  -0.123978   0.066342
H  -0.120082  -1.459751  -0.941600
