butane_opt
 OpenBabel08242015423D

 14 13  0  0  0  0  0  0  0  0999 V2000
   -3.9616    0.2588   -0.0061 C   0  0  0  0  0  0  0  0  0  0  0  0
   -2.6929   -0.6270    0.0563 C   0  0  0  0  0  0  0  0  0  0  0  0
   -4.8759   -0.3089    0.2213 H   0  0  0  0  0  0  0  0  0  0  0  0
   -4.0594    1.0941   -1.0653 H   0  0  0  0  0  0  0  0  0  0  0  0
   -4.0234    0.7267    0.7448 H   0  0  0  0  0  0  0  0  0  0  0  0
   -1.4024    0.1955    0.0572 C   0  0  0  0  0  0  0  0  0  0  0  0
   -2.6850   -1.2923   -0.7775 H   0  0  0  0  0  0  0  0  0  0  0  0
   -2.7313   -1.2042    0.9167 H   0  0  0  0  0  0  0  0  0  0  0  0
   -0.1565   -0.6942    0.0034 C   0  0  0  0  0  0  0  0  0  0  0  0
   -1.3203    0.9433    0.9105 H   0  0  0  0  0  0  0  0  0  0  0  0
   -1.3056    0.7946   -0.8310 H   0  0  0  0  0  0  0  0  0  0  0  0
   -0.0532   -1.2471    0.8429 H   0  0  0  0  0  0  0  0  0  0  0  0
    0.7241   -0.1240    0.0663 H   0  0  0  0  0  0  0  0  0  0  0  0
   -0.1201   -1.4598   -0.9416 H   0  0  0  0  0  0  0  0  0  0  0  0
  1  2  1  0  0  0  0
  1  3  1  0  0  0  0
  1  5  1  0  0  0  0
  2  6  1  0  0  0  0
  2  8  1  0  0  0  0
  4  1  1  0  0  0  0
  6 10  1  0  0  0  0
  7  2  1  0  0  0  0
  9  6  1  0  0  0  0
  9 13  1  0  0  0  0
  9 12  1  0  0  0  0
 11  6  1  0  0  0  0
 14  9  1  0  0  0  0
M  END
$$$$
